
 OpenBabel12052208543D

 35 37  0  0  1  0  0  0  0  0999 V2000
   20.7560   24.2820   22.6030 N   0  0  0  0  0  0  0  0  0  0  0  0
   20.7340   23.7390   21.3860 C   0  0  0  0  0  0  0  0  0  0  0  0
   21.6090   24.1310   20.5990 O   0  0  0  0  0  0  0  0  0  0  0  0
   19.7180   22.6800   20.9480 C   0  0  0  0  0  0  0  0  0  0  0  0
   21.1650   20.3690   20.5780 P   0  0  2  0  0  0  0  0  0  0  0  0
   20.1990   21.7120   19.7120 S   0  0  0  0  0  0  0  0  0  0  0  0
   20.4420   19.1350   20.8410 O   0  0  0  0  0  0  0  0  0  0  0  0
   21.7360   20.9460   21.8090 O   0  0  0  0  0  0  0  0  0  0  0  0
   22.4680   19.0930   18.4140 P   0  0  1  0  0  0  0  0  0  0  0  0
   21.1790   19.2570   17.6700 O   0  0  0  0  0  0  0  0  0  0  0  0
   23.6570   19.5450   17.6760 O   0  0  0  0  0  0  0  0  0  0  0  0
   22.4170   19.8380   19.7680 O   0  0  0  0  0  0  0  0  0  0  0  0
   21.8360   16.1770   18.8690 P   0  0  1  0  0  0  0  0  0  0  0  0
   22.0440   15.6990   20.2260 O   0  0  0  0  0  0  0  0  0  0  0  0
   20.4990   16.3770   18.2710 O   0  0  0  0  0  0  0  0  0  0  0  0
   22.5850   17.5950   18.3800 O   0  0  0  0  0  0  0  0  0  0  0  0
   22.9700   15.3730   18.1130 O   0  0  0  0  0  0  0  0  0  0  0  0
   23.1630   15.6680   16.8130 C   0  0  0  0  0  0  0  0  0  0  0  0
   24.2700   14.8250   16.2450 C   0  0  1  0  0  0  0  0  0  0  0  0
   23.9550   13.4430   16.3400 O   0  0  0  0  0  0  0  0  0  0  0  0
   24.4100   15.2040   14.8270 C   0  0  1  0  0  0  0  0  0  0  0  0
   25.5040   16.0860   14.7010 O   0  0  0  0  0  0  0  0  0  0  0  0
   24.5920   13.8860   14.1200 C   0  0  1  0  0  0  0  0  0  0  0  0
   25.9750   13.5910   13.8600 O   0  0  0  0  0  0  0  0  0  0  0  0
   23.8630   12.8880   15.0720 C   0  0  2  0  0  0  0  0  0  0  0  0
   22.3870   12.6920   14.7420 N   0  0  0  0  0  0  0  0  0  0  0  0
   21.2020   13.1860   15.3370 C   0  0  0  0  0  0  0  0  0  0  0  0
   20.0390   12.8490   14.8430 N   0  0  0  0  0  0  0  0  0  0  0  0
   20.4490   12.0540   13.8170 C   0  0  0  0  0  0  0  0  0  0  0  0
   19.7500   11.3110   12.8180 C   0  0  0  0  0  0  0  0  0  0  0  0
   18.3200   11.3440   12.7980 N   0  0  0  0  0  0  0  0  0  0  0  0
   20.4450   10.5650   11.8710 N   0  0  0  0  0  0  0  0  0  0  0  0
   21.8380   10.5230   11.8730 C   0  0  0  0  0  0  0  0  0  0  0  0
   22.6430   11.1810   12.7680 N   0  0  0  0  0  0  0  0  0  0  0  0
   21.8960   11.9370   13.7260 C   0  0  0  0  0  0  0  0  0  0  0  0
  2  1  1  0  0  0  0
  3  2  2  0  0  0  0
  4  2  1  0  0  0  0
  5  7  2  1  0  0  0
  5  8  1  0  0  0  0
  6  5  1  0  0  0  0
  6  4  1  0  0  0  0
  9 10  2  6  0  0  0
  9 12  1  0  0  0  0
 11  9  1  0  0  0  0
 12  5  1  0  0  0  0
 13 15  2  6  0  0  0
 13 14  1  0  0  0  0
 16  9  1  0  0  0  0
 16 13  1  0  0  0  0
 17 13  1  0  0  0  0
 18 17  1  0  0  0  0
 19 20  1  0  0  0  0
 19 18  1  6  0  0  0
 21 22  1  1  0  0  0
 21 19  1  0  0  0  0
 23 24  1  1  0  0  0
 23 21  1  0  0  0  0
 23 25  1  0  0  0  0
 25 26  1  6  0  0  0
 25 20  1  0  0  0  0
 26 27  1  0  0  0  0
 28 27  2  0  0  0  0
 29 28  1  0  0  0  0
 30 29  2  0  0  0  0
 31 30  1  0  0  0  0
 32 33  2  0  0  0  0
 32 30  1  0  0  0  0
 33 34  1  0  0  0  0
 34 35  2  0  0  0  0
 35 29  1  0  0  0  0
 35 26  1  0  0  0  0
M  END
>  <REMARK>
 AtomGroup 2G1T_pdbfixer

$$$$
