
 OpenBabel12052208543D

 39 43  0  0  0  0  0  0  0  0999 V2000
   19.4480   10.4240   12.1590 N   0  0  0  0  0  0  0  0  0  0  0  0
    7.9180   20.2950   18.2590 N   0  0  0  0  0  0  0  0  0  0  0  0
   16.6780   11.7180   15.8390 C   0  0  0  0  0  0  0  0  0  0  0  0
   15.5360   11.9860   16.7070 C   0  0  0  0  0  0  0  0  0  0  0  0
   15.0070   11.0360   17.6830 C   0  0  0  0  0  0  0  0  0  0  0  0
   13.8620   11.4100   18.4730 C   0  0  0  0  0  0  0  0  0  0  0  0
   13.2540   12.6890   18.2970 C   0  0  0  0  0  0  0  0  0  0  0  0
   14.9150   13.2490   16.5540 C   0  0  0  0  0  0  0  0  0  0  0  0
   11.1190   16.2810   17.5350 C   0  0  0  0  0  0  0  0  0  0  0  0
    9.3120   17.7080   18.4200 C   0  0  0  0  0  0  0  0  0  0  0  0
   10.0270   17.9730   16.0300 C   0  0  0  0  0  0  0  0  0  0  0  0
    8.0840   19.4850   17.0440 C   0  0  0  0  0  0  0  0  0  0  0  0
    9.1410   21.0730   18.6210 C   0  0  0  0  0  0  0  0  0  0  0  0
    8.9500   21.7710   19.9860 C   0  0  0  0  0  0  0  0  0  0  0  0
    6.7670   21.2140   18.1650 C   0  0  0  0  0  0  0  0  0  0  0  0
   21.7730   11.2980   12.6370 C   0  0  0  0  0  0  0  0  0  0  0  0
   22.4870   12.0060   13.5890 C   0  0  0  0  0  0  0  0  0  0  0  0
   21.8160   12.4610   14.7620 C   0  0  0  0  0  0  0  0  0  0  0  0
   20.5200   12.2720   15.0470 N   0  0  0  0  0  0  0  0  0  0  0  0
   19.8530   11.5640   14.0670 N   0  0  0  0  0  0  0  0  0  0  0  0
   20.3810   11.0480   12.8560 C   0  0  0  0  0  0  0  0  0  0  0  0
   18.2920   10.5290   12.9060 C   0  0  0  0  0  0  0  0  0  0  0  0
   18.5300   11.2100   14.0540 C   0  0  0  0  0  0  0  0  0  0  0  0
   17.5700   11.4940   15.0390 C   0  0  0  0  0  0  0  0  0  0  0  0
   13.7880   13.6240   17.3290 C   0  0  0  0  0  0  0  0  0  0  0  0
   15.6140    9.6510   17.9070 C   0  0  0  0  0  0  0  0  0  0  0  0
   13.1940   14.9820   17.1060 C   0  0  0  0  0  0  0  0  0  0  0  0
   13.7430   15.7760   16.3360 O   0  0  0  0  0  0  0  0  0  0  0  0
   12.0620   15.2510   17.7840 N   0  0  0  0  0  0  0  0  0  0  0  0
   10.2820   16.6740   18.6080 C   0  0  0  0  0  0  0  0  0  0  0  0
    9.1600   18.3770   17.1440 C   0  0  0  0  0  0  0  0  0  0  0  0
   10.9820   16.9350   16.2580 C   0  0  0  0  0  0  0  0  0  0  0  0
    9.9780   18.6010   14.6180 C   0  0  0  0  0  0  0  0  0  0  0  0
   10.4750   19.8240   14.6570 F   0  0  0  0  0  0  0  0  0  0  0  0
   10.7000   17.9240   13.7290 F   0  0  0  0  0  0  0  0  0  0  0  0
    8.7250   18.6430   14.1560 F   0  0  0  0  0  0  0  0  0  0  0  0
    6.5740   22.0320   19.4800 C   0  0  0  0  0  0  0  0  0  0  0  0
    7.6710   23.4790   21.1410 C   0  0  0  0  0  0  0  0  0  0  0  0
    7.8280   22.7280   19.9040 N   0  0  0  0  0  0  0  0  0  0  0  0
  1 21  2  0  0  0  0
  1 22  1  0  0  0  0
  2 13  1  0  0  0  0
  3  4  1  0  0  0  0
  4  5  1  0  0  0  0
  5 26  1  0  0  0  0
  5  6  2  0  0  0  0
  7  6  1  0  0  0  0
  8  4  2  0  0  0  0
  8 25  1  0  0  0  0
  9 29  1  0  0  0  0
  9 30  1  0  0  0  0
 10 30  2  0  0  0  0
 11 32  1  0  0  0  0
 11 31  2  0  0  0  0
 12 31  1  0  0  0  0
 12  2  1  0  0  0  0
 13 14  1  0  0  0  0
 15  2  1  0  0  0  0
 15 37  1  0  0  0  0
 16 21  1  0  0  0  0
 16 17  2  0  0  0  0
 17 18  1  0  0  0  0
 18 19  2  0  0  0  0
 20 19  1  0  0  0  0
 21 20  1  0  0  0  0
 22 23  2  0  0  0  0
 23 20  1  0  0  0  0
 23 24  1  0  0  0  0
 24  3  3  0  0  0  0
 25  7  2  0  0  0  0
 27 25  1  0  0  0  0
 27 29  1  0  0  0  0
 28 27  2  0  0  0  0
 31 10  1  0  0  0  0
 32  9  2  0  0  0  0
 33 34  1  0  0  0  0
 33 11  1  0  0  0  0
 35 33  1  0  0  0  0
 36 33  1  0  0  0  0
 37 39  1  0  0  0  0
 39 14  1  0  0  0  0
 39 38  1  0  0  0  0
M  END
>  <REMARK>
 AtomGroup 3OXZ_pdbfixer

$$$$
