
 OpenBabel12052208463D

 47 49  0  0  1  0  0  0  0  0999 V2000
   -1.3691    5.9318   10.7977 C   0  0  0  0  0  0  0  0  0  0  0  0
   -1.9102    4.7516   11.1729 N   0  0  0  0  0  0  0  0  0  0  0  0
   -2.5337    4.0085   10.2318 C   0  0  0  0  0  0  0  0  0  0  0  0
   -2.5985    4.5052    8.9214 C   0  0  0  0  0  0  0  0  0  0  0  0
   -2.0215    5.7439    8.6899 C   0  0  0  0  0  0  0  0  0  0  0  0
   -1.3848    6.5199    9.5825 N   0  0  0  0  0  0  0  0  0  0  0  0
   -2.2677    6.0059    7.3699 N   0  0  0  0  0  0  0  0  0  0  0  0
   -2.9799    4.9490    6.8813 C   0  0  0  0  0  0  0  0  0  0  0  0
   -3.1713    4.0062    7.7732 N   0  0  0  0  0  0  0  0  0  0  0  0
   -1.9000    7.2102    6.6518 C   0  0  1  0  0  0  0  0  0  0  0  0
   -0.5403    7.1392    5.9562 C   0  0  1  0  0  0  0  0  0  0  0  0
   -0.7359    8.1411    4.8265 C   0  0  1  0  0  0  0  0  0  0  0  0
   -2.1858    7.9020    4.4044 C   0  0  2  0  0  0  0  0  0  0  0  0
   -2.8704    7.4646    5.6033 O   0  0  0  0  0  0  0  0  0  0  0  0
   -2.2808    6.8396    3.2929 C   0  0  0  0  0  0  0  0  0  0  0  0
   -3.6121    6.7017    2.8193 O   0  0  0  0  0  0  0  0  0  0  0  0
   -3.9371    5.6679    1.6127 P   0  0  2  0  0  0  0  0  0  0  0  0
   -5.3650    5.6693    1.1539 O   0  0  0  0  0  0  0  0  0  0  0  0
   -3.4187    4.2233    2.0879 O   0  0  0  0  0  0  0  0  0  0  0  0
   -4.0510    3.2184    3.3462 P   0  0  3  0  0  0  0  0  0  0  0  0
   -4.5742    4.4498    4.0697 O   0  0  0  0  0  0  0  0  0  0  0  0
   -5.2216    2.7299    2.3091 O   0  0  0  0  0  0  0  0  0  0  0  0
   -4.6834    2.2135    4.6044 O   0  0  0  0  0  0  0  0  0  0  0  0
   -4.9272    0.6124    3.9961 P   0  0  0  0  0  0  0  0  0  0  0  0
   -3.4196    0.4383    3.8337 O   0  0  0  0  0  0  0  0  0  0  0  0
   -5.3735    0.0868    5.4640 O   0  0  0  0  0  0  0  0  0  0  0  0
   -5.1710   -0.9886    3.3877 O   0  0  0  0  0  0  0  0  0  0  0  0
   -2.7462    6.2013   -0.0390 S   0  0  0  0  0  0  0  0  0  0  0  0
   -0.5391    9.4638    5.3581 O   0  0  0  0  0  0  0  0  0  0  0  0
    0.5641    7.5047    6.7746 O   0  0  0  0  0  0  0  0  0  0  0  0
   -3.1218    2.8054   10.6154 N   0  0  0  0  0  0  0  0  0  0  0  0
   -0.8588    6.4840   11.5820 H   0  0  0  0  0  0  0  0  0  0  0  0
   -3.3440    4.9362    5.8663 H   0  0  0  0  0  0  0  0  0  0  0  0
   -1.9525    8.0442    7.3618 H   0  0  0  0  0  0  0  0  0  0  0  0
   -0.3565    6.1370    5.5523 H   0  0  0  0  0  0  0  0  0  0  0  0
   -0.0091    8.0168    4.0186 H   0  0  0  0  0  0  0  0  0  0  0  0
   -2.6772    8.8260    4.0799 H   0  0  0  0  0  0  0  0  0  0  0  0
   -1.9376    5.8658    3.6527 H   0  0  0  0  0  0  0  0  0  0  0  0
   -1.6487    7.1577    2.4583 H   0  0  0  0  0  0  0  0  0  0  0  0
   -4.8747    2.2907    1.5104 H   0  0  0  0  0  0  0  0  0  0  0  0
   -4.5856   -0.2148    5.9489 H   0  0  0  0  0  0  0  0  0  0  0  0
   -5.8532   -1.0002    2.6945 H   0  0  0  0  0  0  0  0  0  0  0  0
   -3.2081    5.2272   -0.8288 H   0  0  0  0  0  0  0  0  0  0  0  0
   -1.3857    9.8042    5.7029 H   0  0  0  0  0  0  0  0  0  0  0  0
    0.6441    8.4792    6.7196 H   0  0  0  0  0  0  0  0  0  0  0  0
   -3.3365    2.8023   11.6042 H   0  0  0  0  0  0  0  0  0  0  0  0
   -3.8632    2.5232    9.9819 H   0  0  0  0  0  0  0  0  0  0  0  0
  1  2  1  0  0  0  0
  1  6  2  0  0  0  0
  1 32  1  0  0  0  0
  2  3  2  0  0  0  0
  3  4  1  0  0  0  0
  3 31  1  0  0  0  0
  4  5  2  0  0  0  0
  4  9  1  0  0  0  0
  5  6  1  0  0  0  0
  5  7  1  0  0  0  0
  7  8  1  0  0  0  0
  7 10  1  0  0  0  0
  8  9  2  0  0  0  0
  8 33  1  0  0  0  0
 10 11  1  0  0  0  0
 10 14  1  0  0  0  0
 10 34  1  1  0  0  0
 11 12  1  0  0  0  0
 11 30  1  0  0  0  0
 11 35  1  6  0  0  0
 12 13  1  0  0  0  0
 12 29  1  0  0  0  0
 12 36  1  6  0  0  0
 13 14  1  0  0  0  0
 13 15  1  0  0  0  0
 13 37  1  6  0  0  0
 15 16  1  0  0  0  0
 15 38  1  0  0  0  0
 15 39  1  0  0  0  0
 17 19  1  0  0  0  0
 17 28  1  0  0  0  0
 17 18  2  6  0  0  0
 17 16  1  0  0  0  0
 19 20  1  0  0  0  0
 20 21  2  0  0  0  0
 20 22  1  0  0  0  0
 20 23  1  0  0  0  0
 22 40  1  0  0  0  0
 23 24  1  0  0  0  0
 24 25  2  0  0  0  0
 24 26  1  0  0  0  0
 24 27  1  0  0  0  0
 26 41  1  0  0  0  0
 27 42  1  0  0  0  0
 28 43  1  0  0  0  0
 29 44  1  0  0  0  0
 30 45  1  0  0  0  0
 31 46  1  0  0  0  0
 31 47  1  0  0  0  0
M  END
$$$$
