


 39 41  0  0  0  0  0  0  0  0999 V2000
   24.1330   13.2299   14.7827 C   0  0  0  0  0  0  0  0  0  0  0  0
   24.5910   14.6403   14.4103 C   0  0  0  0  0  0  0  0  0  0  0  0
   25.6488   14.8961   15.4752 C   0  0  0  0  0  0  0  0  0  0  0  0
   25.0468   14.2425   16.7194 C   0  0  0  0  0  0  0  0  0  0  0  0
   24.2391   13.1457   16.2275 O   0  0  0  0  0  0  0  0  0  0  0  0
   26.8680   14.2523   15.0631 O   0  0  0  0  0  0  0  0  0  0  0  0
   25.1440   14.7588   13.1053 O   0  0  0  0  0  0  0  0  0  0  0  0
   26.8749   13.3324   15.3873 H   0  0  0  0  0  0  0  0  0  0  0  0
   26.0923   14.5258   13.1798 H   0  0  0  0  0  0  0  0  0  0  0  0
   22.4715   10.5433   11.7618 C   0  0  0  0  0  0  0  0  0  0  0  0
   21.1274   10.4225   11.6893 N   0  0  0  0  0  0  0  0  0  0  0  0
   20.3737   11.1819   12.5151 C   0  0  0  0  0  0  0  0  0  0  0  0
   21.0237   12.0436   13.4112 C   0  0  0  0  0  0  0  0  0  0  0  0
   22.4096   12.0418   13.3910 C   0  0  0  0  0  0  0  0  0  0  0  0
   23.2066   11.3160   12.5896 N   0  0  0  0  0  0  0  0  0  0  0  0
   22.7772   12.9153   14.3777 N   0  0  0  0  0  0  0  0  0  0  0  0
   21.6264   13.3790   14.9467 C   0  0  0  0  0  0  0  0  0  0  0  0
   20.5461   12.9064   14.3718 N   0  0  0  0  0  0  0  0  0  0  0  0
   18.9886   11.0414   12.4696 N   0  0  0  0  0  0  0  0  0  0  0  0
   18.7247   10.1383   12.0973 H   0  0  0  0  0  0  0  0  0  0  0  0
   18.5464   11.3295   13.3369 H   0  0  0  0  0  0  0  0  0  0  0  0
   24.1939   15.2419   17.5236 C   0  0  0  0  0  0  0  0  0  0  0  0
   24.9054   16.4438   17.7787 O   0  0  0  0  0  0  0  0  0  0  0  0
   24.2106   17.8755   17.4665 P   0  0  0  0  0  0  0  0  0  0  0  0
   24.5127   18.9503   18.4680 O   0  0  0  0  0  0  0  0  0  0  0  0
   24.9106   18.5441   15.5973 S   0  0  0  0  0  0  0  0  0  0  0  0
   24.2037   19.6781   15.6125 H   0  0  0  0  0  0  0  0  0  0  0  0
   22.6392   17.5973   17.2803 O   0  0  0  0  0  0  0  0  0  0  0  0
   21.3764   17.7562   18.4521 P   0  0  0  0  0  0  0  0  0  0  0  0
   20.8641   16.3703   18.0912 O   0  0  0  0  0  0  0  0  0  0  0  0
   22.5021   17.5675   19.6276 O   0  0  0  0  0  0  0  0  0  0  0  0
   23.1962   18.2524   19.6145 H   0  0  0  0  0  0  0  0  0  0  0  0
   20.1138   17.9151   19.6240 O   0  0  0  0  0  0  0  0  0  0  0  0
   19.5888   19.5624   19.6864 P   0  0  0  0  0  0  0  0  0  0  0  0
   20.6365   19.9418   18.6434 O   0  0  0  0  0  0  0  0  0  0  0  0
   18.2002   19.1830   18.9395 O   0  0  0  0  0  0  0  0  0  0  0  0
   19.0640   21.2096   19.7490 O   0  0  0  0  0  0  0  0  0  0  0  0
   18.3242   19.2565   17.9772 H   0  0  0  0  0  0  0  0  0  0  0  0
   18.9939   21.5207   20.6679 H   0  0  0  0  0  0  0  0  0  0  0  0
 10 11  1  0  0  0
 10 15  2  0  0  0
 11 12  2  0  0  0
 12 13  1  0  0  0
 12 19  1  0  0  0
 13 14  2  0  0  0
 13 18  1  0  0  0
 14 15  1  0  0  0
 14 16  1  0  0  0
 16 17  1  0  0  0
 16  1  1  0  0  0
 17 18  2  0  0  0
  1  2  1  0  0  0
  1  5  1  0  0  0
  2  3  1  0  0  0
  2  7  1  0  0  0
  3  4  1  0  0  0
  3  6  1  0  0  0
  4  5  1  0  0  0
  4 22  1  0  0  0
 22 23  1  0  0  0
 24 28  1  0  0  0
 24 26  1  0  0  0
 24 25  2  0  0  0
 24 23  1  0  0  0
 28 29  1  0  0  0
 29 30  2  0  0  0
 29 31  1  0  0  0
 29 33  1  0  0  0
 31 32  1  0  0  0
 33 34  1  0  0  0
 34 35  2  0  0  0
 34 36  1  0  0  0
 34 37  1  0  0  0
 36 38  1  0  0  0
 37 39  1  0  0  0
 26 27  1  0  0  0
  6  8  1  0  0  0
  7  9  1  0  0  0
 19 20  1  0  0  0
 19 21  1  0  0  0
M  END
> <minimizedAffinity>
-8.95342

$$$$



 39 41  0  0  0  0  0  0  0  0999 V2000
   22.8918   12.4208   14.4035 C   0  0  0  0  0  0  0  0  0  0  0  0
   23.3811   13.0694   13.1083 C   0  0  0  0  0  0  0  0  0  0  0  0
   24.8888   13.0438   13.3186 C   0  0  0  0  0  0  0  0  0  0  0  0
   25.0316   13.3523   14.8092 C   0  0  0  0  0  0  0  0  0  0  0  0
   23.8359   12.8213   15.4302 O   0  0  0  0  0  0  0  0  0  0  0  0
   25.3672   11.7267   12.9912 O   0  0  0  0  0  0  0  0  0  0  0  0
   23.0210   12.3709   11.9227 O   0  0  0  0  0  0  0  0  0  0  0  0
   25.3248   11.1597   13.7838 H   0  0  0  0  0  0  0  0  0  0  0  0
   23.7077   11.6875   11.7798 H   0  0  0  0  0  0  0  0  0  0  0  0
   18.9168   11.3126   12.9628 C   0  0  0  0  0  0  0  0  0  0  0  0
   17.8429   11.8101   13.6154 N   0  0  0  0  0  0  0  0  0  0  0  0
   18.0593   12.6664   14.6384 C   0  0  0  0  0  0  0  0  0  0  0  0
   19.3832   12.9830   14.9776 C   0  0  0  0  0  0  0  0  0  0  0  0
   20.3841   12.3754   14.2361 C   0  0  0  0  0  0  0  0  0  0  0  0
   20.2273   11.5254   13.2079 N   0  0  0  0  0  0  0  0  0  0  0  0
   21.5527   12.8108   14.7986 N   0  0  0  0  0  0  0  0  0  0  0  0
   21.2131   13.6261   15.8392 C   0  0  0  0  0  0  0  0  0  0  0  0
   19.9166   13.7854   15.9610 N   0  0  0  0  0  0  0  0  0  0  0  0
   16.9599   13.1599   15.3372 N   0  0  0  0  0  0  0  0  0  0  0  0
   16.1614   12.5455   15.2439 H   0  0  0  0  0  0  0  0  0  0  0  0
   17.2058   13.4567   16.2764 H   0  0  0  0  0  0  0  0  0  0  0  0
   25.1614   14.8665   15.0610 C   0  0  0  0  0  0  0  0  0  0  0  0
   23.9556   15.4123   15.5748 O   0  0  0  0  0  0  0  0  0  0  0  0
   23.9624   16.1866   16.9998 P   0  0  0  0  0  0  0  0  0  0  0  0
   24.0735   15.2920   18.1985 O   0  0  0  0  0  0  0  0  0  0  0  0
   25.6207   17.4828   17.0276 S   0  0  0  0  0  0  0  0  0  0  0  0
   25.3734   17.9540   18.2536 H   0  0  0  0  0  0  0  0  0  0  0  0
   22.6605   17.1279   17.0219 O   0  0  0  0  0  0  0  0  0  0  0  0
   21.5762   17.4266   18.3364 P   0  0  0  0  0  0  0  0  0  0  0  0
   21.1141   15.9783   18.2872 O   0  0  0  0  0  0  0  0  0  0  0  0
   22.8731   17.4894   19.3357 O   0  0  0  0  0  0  0  0  0  0  0  0
   23.5083   18.1924   19.1044 H   0  0  0  0  0  0  0  0  0  0  0  0
   20.4920   17.7253   19.6510 O   0  0  0  0  0  0  0  0  0  0  0  0
   20.0037   19.3849   19.6303 P   0  0  0  0  0  0  0  0  0  0  0  0
   21.0354   19.6809   18.5451 O   0  0  0  0  0  0  0  0  0  0  0  0
   18.5908   18.9951   18.9360 O   0  0  0  0  0  0  0  0  0  0  0  0
   19.5156   21.0444   19.6096 O   0  0  0  0  0  0  0  0  0  0  0  0
   18.6947   19.0111   17.9686 H   0  0  0  0  0  0  0  0  0  0  0  0
   19.4729   21.4086   20.5105 H   0  0  0  0  0  0  0  0  0  0  0  0
 10 11  1  0  0  0
 10 15  2  0  0  0
 11 12  2  0  0  0
 12 13  1  0  0  0
 12 19  1  0  0  0
 13 14  2  0  0  0
 13 18  1  0  0  0
 14 15  1  0  0  0
 14 16  1  0  0  0
 16 17  1  0  0  0
 16  1  1  0  0  0
 17 18  2  0  0  0
  1  2  1  0  0  0
  1  5  1  0  0  0
  2  3  1  0  0  0
  2  7  1  0  0  0
  3  4  1  0  0  0
  3  6  1  0  0  0
  4  5  1  0  0  0
  4 22  1  0  0  0
 22 23  1  0  0  0
 24 28  1  0  0  0
 24 26  1  0  0  0
 24 25  2  0  0  0
 24 23  1  0  0  0
 28 29  1  0  0  0
 29 30  2  0  0  0
 29 31  1  0  0  0
 29 33  1  0  0  0
 31 32  1  0  0  0
 33 34  1  0  0  0
 34 35  2  0  0  0
 34 36  1  0  0  0
 34 37  1  0  0  0
 36 38  1  0  0  0
 37 39  1  0  0  0
 26 27  1  0  0  0
  6  8  1  0  0  0
  7  9  1  0  0  0
 19 20  1  0  0  0
 19 21  1  0  0  0
M  END
> <minimizedAffinity>
-8.86160

$$$$



 39 41  0  0  0  0  0  0  0  0999 V2000
   21.7025   15.9037   15.3794 C   0  0  0  0  0  0  0  0  0  0  0  0
   21.5317   15.3448   16.7923 C   0  0  0  0  0  0  0  0  0  0  0  0
   21.7912   16.5875   17.6328 C   0  0  0  0  0  0  0  0  0  0  0  0
   22.9163   17.2875   16.8703 C   0  0  0  0  0  0  0  0  0  0  0  0
   22.7188   16.9346   15.4797 O   0  0  0  0  0  0  0  0  0  0  0  0
   20.5860   17.3734   17.6592 O   0  0  0  0  0  0  0  0  0  0  0  0
   20.2439   14.8060   17.0650 O   0  0  0  0  0  0  0  0  0  0  0  0
   20.5798   17.9837   16.8983 H   0  0  0  0  0  0  0  0  0  0  0  0
   19.6803   15.5552   17.3483 H   0  0  0  0  0  0  0  0  0  0  0  0
   20.0373   12.0526   14.1545 C   0  0  0  0  0  0  0  0  0  0  0  0
   20.6253   11.4048   13.1244 N   0  0  0  0  0  0  0  0  0  0  0  0
   21.7278   11.9566   12.5707 C   0  0  0  0  0  0  0  0  0  0  0  0
   22.1955   13.1759   13.0833 C   0  0  0  0  0  0  0  0  0  0  0  0
   21.4741   13.7373   14.1251 C   0  0  0  0  0  0  0  0  0  0  0  0
   20.3796   13.2312   14.7170 N   0  0  0  0  0  0  0  0  0  0  0  0
   22.1053   14.9212   14.3926 N   0  0  0  0  0  0  0  0  0  0  0  0
   23.1416   15.0270   13.5106 C   0  0  0  0  0  0  0  0  0  0  0  0
   23.2537   13.9811   12.7266 N   0  0  0  0  0  0  0  0  0  0  0  0
   22.3225   11.3125   11.4881 N   0  0  0  0  0  0  0  0  0  0  0  0
   21.6609   10.7149   11.0098 H   0  0  0  0  0  0  0  0  0  0  0  0
   22.8655   11.9506   10.9148 H   0  0  0  0  0  0  0  0  0  0  0  0
   24.3016   16.8315   17.3666 C   0  0  0  0  0  0  0  0  0  0  0  0
   25.2460   16.7946   16.3072 O   0  0  0  0  0  0  0  0  0  0  0  0
   26.0955   15.4413   16.0292 P   0  0  0  0  0  0  0  0  0  0  0  0
   27.3847   15.3434   16.7893 O   0  0  0  0  0  0  0  0  0  0  0  0
   24.9063   13.7994   16.5955 S   0  0  0  0  0  0  0  0  0  0  0  0
   25.8208   12.8813   16.2688 H   0  0  0  0  0  0  0  0  0  0  0  0
   26.2808   15.3293   14.4372 O   0  0  0  0  0  0  0  0  0  0  0  0
   26.9892   14.0385   13.5289 P   0  0  0  0  0  0  0  0  0  0  0  0
   26.6571   14.7644   12.2341 O   0  0  0  0  0  0  0  0  0  0  0  0
   28.4634   14.5624   14.0156 O   0  0  0  0  0  0  0  0  0  0  0  0
   28.5796   14.5514   14.9838 H   0  0  0  0  0  0  0  0  0  0  0  0
   27.6977   12.7478   12.6206 O   0  0  0  0  0  0  0  0  0  0  0  0
   26.4758   11.5950   12.2073 P   0  0  0  0  0  0  0  0  0  0  0  0
   27.3533   10.4653   12.7397 O   0  0  0  0  0  0  0  0  0  0  0  0
   25.5159   12.1358   13.3973 O   0  0  0  0  0  0  0  0  0  0  0  0
   25.2540   10.4421   11.7938 O   0  0  0  0  0  0  0  0  0  0  0  0
   25.7090   11.6421   14.2133 H   0  0  0  0  0  0  0  0  0  0  0  0
   24.9382   10.5769   10.8837 H   0  0  0  0  0  0  0  0  0  0  0  0
 10 11  1  0  0  0
 10 15  2  0  0  0
 11 12  2  0  0  0
 12 13  1  0  0  0
 12 19  1  0  0  0
 13 14  2  0  0  0
 13 18  1  0  0  0
 14 15  1  0  0  0
 14 16  1  0  0  0
 16 17  1  0  0  0
 16  1  1  0  0  0
 17 18  2  0  0  0
  1  2  1  0  0  0
  1  5  1  0  0  0
  2  3  1  0  0  0
  2  7  1  0  0  0
  3  4  1  0  0  0
  3  6  1  0  0  0
  4  5  1  0  0  0
  4 22  1  0  0  0
 22 23  1  0  0  0
 24 28  1  0  0  0
 24 26  1  0  0  0
 24 25  2  0  0  0
 24 23  1  0  0  0
 28 29  1  0  0  0
 29 30  2  0  0  0
 29 31  1  0  0  0
 29 33  1  0  0  0
 31 32  1  0  0  0
 33 34  1  0  0  0
 34 35  2  0  0  0
 34 36  1  0  0  0
 34 37  1  0  0  0
 36 38  1  0  0  0
 37 39  1  0  0  0
 26 27  1  0  0  0
  6  8  1  0  0  0
  7  9  1  0  0  0
 19 20  1  0  0  0
 19 21  1  0  0  0
M  END
> <minimizedAffinity>
-8.76371

$$$$



 39 41  0  0  0  0  0  0  0  0999 V2000
   24.2723   16.2967   16.4267 C   0  0  0  0  0  0  0  0  0  0  0  0
   25.3871   15.5622   17.1721 C   0  0  0  0  0  0  0  0  0  0  0  0
   26.1849   14.9841   16.0112 C   0  0  0  0  0  0  0  0  0  0  0  0
   25.0970   14.5829   15.0146 C   0  0  0  0  0  0  0  0  0  0  0  0
   24.0103   15.5152   15.2324 O   0  0  0  0  0  0  0  0  0  0  0  0
   27.0386   16.0193   15.4914 O   0  0  0  0  0  0  0  0  0  0  0  0
   26.2041   16.3944   17.9862 O   0  0  0  0  0  0  0  0  0  0  0  0
   26.5581   16.5239   14.8088 H   0  0  0  0  0  0  0  0  0  0  0  0
   26.9028   16.7580   17.4042 H   0  0  0  0  0  0  0  0  0  0  0  0
   22.1624   19.7789   18.0164 C   0  0  0  0  0  0  0  0  0  0  0  0
   20.9731   19.5775   18.6260 N   0  0  0  0  0  0  0  0  0  0  0  0
   20.5328   18.3068   18.7600 C   0  0  0  0  0  0  0  0  0  0  0  0
   21.3239   17.2670   18.2492 C   0  0  0  0  0  0  0  0  0  0  0  0
   22.5080   17.6269   17.6252 C   0  0  0  0  0  0  0  0  0  0  0  0
   22.9967   18.8685   17.4706 N   0  0  0  0  0  0  0  0  0  0  0  0
   23.0460   16.4487   17.1844 N   0  0  0  0  0  0  0  0  0  0  0  0
   22.1757   15.4582   17.5371 C   0  0  0  0  0  0  0  0  0  0  0  0
   21.1417   15.9029   18.2109 N   0  0  0  0  0  0  0  0  0  0  0  0
   19.2937   18.0914   19.3588 N   0  0  0  0  0  0  0  0  0  0  0  0
   18.7067   18.9127   19.2902 H   0  0  0  0  0  0  0  0  0  0  0  0
   18.8825   17.2063   19.0790 H   0  0  0  0  0  0  0  0  0  0  0  0
   24.6350   13.1306   15.2396 C   0  0  0  0  0  0  0  0  0  0  0  0
   23.4097   12.8667   14.5729 O   0  0  0  0  0  0  0  0  0  0  0  0
   23.3821   12.7323   12.9569 P   0  0  0  0  0  0  0  0  0  0  0  0
   23.4600   14.0353   12.2184 O   0  0  0  0  0  0  0  0  0  0  0  0
   25.0427   11.5786   12.3720 S   0  0  0  0  0  0  0  0  0  0  0  0
   24.7655   11.6381   11.0660 H   0  0  0  0  0  0  0  0  0  0  0  0
   22.0827   11.8630   12.5863 O   0  0  0  0  0  0  0  0  0  0  0  0
   20.5145   11.9157   13.3150 P   0  0  0  0  0  0  0  0  0  0  0  0
   19.9954   10.9360   12.2738 O   0  0  0  0  0  0  0  0  0  0  0  0
   21.1103   11.0320   14.5595 O   0  0  0  0  0  0  0  0  0  0  0  0
   21.8433   11.4696   15.0310 H   0  0  0  0  0  0  0  0  0  0  0  0
   18.9464   11.9682   14.0438 O   0  0  0  0  0  0  0  0  0  0  0  0
   19.0098   12.9309   15.4799 P   0  0  0  0  0  0  0  0  0  0  0  0
   20.1442   13.7585   14.8819 O   0  0  0  0  0  0  0  0  0  0  0  0
   17.5896   13.6250   15.1172 O   0  0  0  0  0  0  0  0  0  0  0  0
   19.0732   13.8934   16.9159 O   0  0  0  0  0  0  0  0  0  0  0  0
   17.7500   14.4176   14.5759 H   0  0  0  0  0  0  0  0  0  0  0  0
   19.0948   13.3348   17.7119 H   0  0  0  0  0  0  0  0  0  0  0  0
 10 11  1  0  0  0
 10 15  2  0  0  0
 11 12  2  0  0  0
 12 13  1  0  0  0
 12 19  1  0  0  0
 13 14  2  0  0  0
 13 18  1  0  0  0
 14 15  1  0  0  0
 14 16  1  0  0  0
 16 17  1  0  0  0
 16  1  1  0  0  0
 17 18  2  0  0  0
  1  2  1  0  0  0
  1  5  1  0  0  0
  2  3  1  0  0  0
  2  7  1  0  0  0
  3  4  1  0  0  0
  3  6  1  0  0  0
  4  5  1  0  0  0
  4 22  1  0  0  0
 22 23  1  0  0  0
 24 28  1  0  0  0
 24 26  1  0  0  0
 24 25  2  0  0  0
 24 23  1  0  0  0
 28 29  1  0  0  0
 29 30  2  0  0  0
 29 31  1  0  0  0
 29 33  1  0  0  0
 31 32  1  0  0  0
 33 34  1  0  0  0
 34 35  2  0  0  0
 34 36  1  0  0  0
 34 37  1  0  0  0
 36 38  1  0  0  0
 37 39  1  0  0  0
 26 27  1  0  0  0
  6  8  1  0  0  0
  7  9  1  0  0  0
 19 20  1  0  0  0
 19 21  1  0  0  0
M  END
> <minimizedAffinity>
-8.68967

$$$$



 39 41  0  0  0  0  0  0  0  0999 V2000
   22.5564   17.5373   18.6228 C   0  0  0  0  0  0  0  0  0  0  0  0
   21.6241   17.6896   17.4206 C   0  0  0  0  0  0  0  0  0  0  0  0
   21.6203   16.2699   16.8705 C   0  0  0  0  0  0  0  0  0  0  0  0
   23.0677   15.8208   17.0726 C   0  0  0  0  0  0  0  0  0  0  0  0
   23.5339   16.5342   18.2436 O   0  0  0  0  0  0  0  0  0  0  0  0
   20.6979   15.4870   17.6497 O   0  0  0  0  0  0  0  0  0  0  0  0
   20.3052   18.1136   17.7431 O   0  0  0  0  0  0  0  0  0  0  0  0
   21.1637   15.1059   18.4173 H   0  0  0  0  0  0  0  0  0  0  0  0
   19.7982   17.3068   17.9693 H   0  0  0  0  0  0  0  0  0  0  0  0
   21.3629   20.9906   21.0218 C   0  0  0  0  0  0  0  0  0  0  0  0
   22.2862   21.9483   21.2602 N   0  0  0  0  0  0  0  0  0  0  0  0
   23.5065   21.8116   20.6957 C   0  0  0  0  0  0  0  0  0  0  0  0
   23.7553   20.6797   19.9052 C   0  0  0  0  0  0  0  0  0  0  0  0
   22.7205   19.7674   19.7711 C   0  0  0  0  0  0  0  0  0  0  0  0
   21.4896   19.8557   20.3015 N   0  0  0  0  0  0  0  0  0  0  0  0
   23.2387   18.7568   19.0084 N   0  0  0  0  0  0  0  0  0  0  0  0
   24.5353   19.0873   18.7388 C   0  0  0  0  0  0  0  0  0  0  0  0
   24.8775   20.2544   19.2306 N   0  0  0  0  0  0  0  0  0  0  0  0
   24.4747   22.7774   20.9611 N   0  0  0  0  0  0  0  0  0  0  0  0
   24.2785   23.2636   21.8264 H   0  0  0  0  0  0  0  0  0  0  0  0
   25.4164   22.4188   20.8372 H   0  0  0  0  0  0  0  0  0  0  0  0
   23.9356   16.1474   15.8425 C   0  0  0  0  0  0  0  0  0  0  0  0
   23.2369   15.8951   14.6326 O   0  0  0  0  0  0  0  0  0  0  0  0
   23.4093   14.4674   13.8829 P   0  0  0  0  0  0  0  0  0  0  0  0
   24.2038   14.5190   12.6119 O   0  0  0  0  0  0  0  0  0  0  0  0
   24.4089   13.1603   15.1957 S   0  0  0  0  0  0  0  0  0  0  0  0
   24.4051   12.1268   14.3484 H   0  0  0  0  0  0  0  0  0  0  0  0
   21.9329   13.8634   13.6911 O   0  0  0  0  0  0  0  0  0  0  0  0
   20.9686   13.0042   14.8421 P   0  0  0  0  0  0  0  0  0  0  0  0
   19.9403   14.1248   14.8203 O   0  0  0  0  0  0  0  0  0  0  0  0
   20.5652   11.9509   13.6538 O   0  0  0  0  0  0  0  0  0  0  0  0
   21.3318   11.4866   13.2692 H   0  0  0  0  0  0  0  0  0  0  0  0
   20.0042   12.1451   15.9931 O   0  0  0  0  0  0  0  0  0  0  0  0
   18.3492   12.6215   15.8290 P   0  0  0  0  0  0  0  0  0  0  0  0
   17.8995   11.2650   16.3646 O   0  0  0  0  0  0  0  0  0  0  0  0
   18.4927   13.6652   17.0620 O   0  0  0  0  0  0  0  0  0  0  0  0
   16.6943   13.0980   15.6647 O   0  0  0  0  0  0  0  0  0  0  0  0
   18.2810   13.2078   17.8944 H   0  0  0  0  0  0  0  0  0  0  0  0
   16.5251   13.4810   14.7868 H   0  0  0  0  0  0  0  0  0  0  0  0
 10 11  1  0  0  0
 10 15  2  0  0  0
 11 12  2  0  0  0
 12 13  1  0  0  0
 12 19  1  0  0  0
 13 14  2  0  0  0
 13 18  1  0  0  0
 14 15  1  0  0  0
 14 16  1  0  0  0
 16 17  1  0  0  0
 16  1  1  0  0  0
 17 18  2  0  0  0
  1  2  1  0  0  0
  1  5  1  0  0  0
  2  3  1  0  0  0
  2  7  1  0  0  0
  3  4  1  0  0  0
  3  6  1  0  0  0
  4  5  1  0  0  0
  4 22  1  0  0  0
 22 23  1  0  0  0
 24 28  1  0  0  0
 24 26  1  0  0  0
 24 25  2  0  0  0
 24 23  1  0  0  0
 28 29  1  0  0  0
 29 30  2  0  0  0
 29 31  1  0  0  0
 29 33  1  0  0  0
 31 32  1  0  0  0
 33 34  1  0  0  0
 34 35  2  0  0  0
 34 36  1  0  0  0
 34 37  1  0  0  0
 36 38  1  0  0  0
 37 39  1  0  0  0
 26 27  1  0  0  0
  6  8  1  0  0  0
  7  9  1  0  0  0
 19 20  1  0  0  0
 19 21  1  0  0  0
M  END
> <minimizedAffinity>
-8.68128

$$$$



 39 41  0  0  0  0  0  0  0  0999 V2000
   23.2287   14.2423   15.0186 C   0  0  0  0  0  0  0  0  0  0  0  0
   23.6677   15.4016   14.1237 C   0  0  0  0  0  0  0  0  0  0  0  0
   24.3729   16.2994   15.1312 C   0  0  0  0  0  0  0  0  0  0  0  0
   23.5028   16.1608   16.3807 C   0  0  0  0  0  0  0  0  0  0  0  0
   22.9418   14.8273   16.3153 O   0  0  0  0  0  0  0  0  0  0  0  0
   25.7016   15.7872   15.3387 O   0  0  0  0  0  0  0  0  0  0  0  0
   24.5463   15.0350   13.0669 O   0  0  0  0  0  0  0  0  0  0  0  0
   25.6861   15.1256   16.0553 H   0  0  0  0  0  0  0  0  0  0  0  0
   25.4524   15.0458   13.4384 H   0  0  0  0  0  0  0  0  0  0  0  0
   22.6323   11.2817   11.8589 C   0  0  0  0  0  0  0  0  0  0  0  0
   21.4015   10.7415   11.7185 N   0  0  0  0  0  0  0  0  0  0  0  0
   20.4132   11.1895   12.5242 C   0  0  0  0  0  0  0  0  0  0  0  0
   20.7181   12.1791   13.4707 C   0  0  0  0  0  0  0  0  0  0  0  0
   22.0313   12.6200   13.5177 C   0  0  0  0  0  0  0  0  0  0  0  0
   23.0489   12.2168   12.7392 N   0  0  0  0  0  0  0  0  0  0  0  0
   22.0617   13.5273   14.5412 N   0  0  0  0  0  0  0  0  0  0  0  0
   20.8020   13.5783   15.0643 C   0  0  0  0  0  0  0  0  0  0  0  0
   19.9528   12.8079   14.4269 N   0  0  0  0  0  0  0  0  0  0  0  0
   19.1487   10.6166   12.4084 N   0  0  0  0  0  0  0  0  0  0  0  0
   19.2024    9.6912   12.0028 H   0  0  0  0  0  0  0  0  0  0  0  0
   18.6046   10.7159   13.2597 H   0  0  0  0  0  0  0  0  0  0  0  0
   22.3925   17.2282   16.4149 C   0  0  0  0  0  0  0  0  0  0  0  0
   22.8232   18.4037   17.0846 O   0  0  0  0  0  0  0  0  0  0  0  0
   22.4226   18.6409   18.6381 P   0  0  0  0  0  0  0  0  0  0  0  0
   22.5205   17.4202   19.5039 O   0  0  0  0  0  0  0  0  0  0  0  0
   23.7333   20.0826   19.4347 S   0  0  0  0  0  0  0  0  0  0  0  0
   23.1874   20.0679   20.6544 H   0  0  0  0  0  0  0  0  0  0  0  0
   20.9637   19.3140   18.6429 O   0  0  0  0  0  0  0  0  0  0  0  0
   20.2689   20.3577   19.8349 P   0  0  0  0  0  0  0  0  0  0  0  0
   18.8768   20.0147   19.3269 O   0  0  0  0  0  0  0  0  0  0  0  0
   20.6584   19.2457   20.9735 O   0  0  0  0  0  0  0  0  0  0  0  0
   21.6155   19.0671   21.0309 H   0  0  0  0  0  0  0  0  0  0  0  0
   19.5741   21.4012   21.0270 O   0  0  0  0  0  0  0  0  0  0  0  0
   19.9127   23.0481   20.6197 P   0  0  0  0  0  0  0  0  0  0  0  0
   21.4021   22.8043   20.8476 O   0  0  0  0  0  0  0  0  0  0  0  0
   19.5553   22.7713   19.0622 O   0  0  0  0  0  0  0  0  0  0  0  0
   20.2514   24.6950   20.2125 O   0  0  0  0  0  0  0  0  0  0  0  0
   20.3604   22.4876   18.5949 H   0  0  0  0  0  0  0  0  0  0  0  0
   19.6638   25.3031   20.6932 H   0  0  0  0  0  0  0  0  0  0  0  0
 10 11  1  0  0  0
 10 15  2  0  0  0
 11 12  2  0  0  0
 12 13  1  0  0  0
 12 19  1  0  0  0
 13 14  2  0  0  0
 13 18  1  0  0  0
 14 15  1  0  0  0
 14 16  1  0  0  0
 16 17  1  0  0  0
 16  1  1  0  0  0
 17 18  2  0  0  0
  1  2  1  0  0  0
  1  5  1  0  0  0
  2  3  1  0  0  0
  2  7  1  0  0  0
  3  4  1  0  0  0
  3  6  1  0  0  0
  4  5  1  0  0  0
  4 22  1  0  0  0
 22 23  1  0  0  0
 24 28  1  0  0  0
 24 26  1  0  0  0
 24 25  2  0  0  0
 24 23  1  0  0  0
 28 29  1  0  0  0
 29 30  2  0  0  0
 29 31  1  0  0  0
 29 33  1  0  0  0
 31 32  1  0  0  0
 33 34  1  0  0  0
 34 35  2  0  0  0
 34 36  1  0  0  0
 34 37  1  0  0  0
 36 38  1  0  0  0
 37 39  1  0  0  0
 26 27  1  0  0  0
  6  8  1  0  0  0
  7  9  1  0  0  0
 19 20  1  0  0  0
 19 21  1  0  0  0
M  END
> <minimizedAffinity>
-8.66291

$$$$



 39 41  0  0  0  0  0  0  0  0999 V2000
   21.9826   15.5329   14.7629 C   0  0  0  0  0  0  0  0  0  0  0  0
   21.9031   15.2350   16.2604 C   0  0  0  0  0  0  0  0  0  0  0  0
   22.1723   16.6134   16.8485 C   0  0  0  0  0  0  0  0  0  0  0  0
   23.2351   17.1845   15.9095 C   0  0  0  0  0  0  0  0  0  0  0  0
   22.9736   16.5831   14.6182 O   0  0  0  0  0  0  0  0  0  0  0  0
   20.9487   17.3696   16.8030 O   0  0  0  0  0  0  0  0  0  0  0  0
   20.6473   14.7314   16.6988 O   0  0  0  0  0  0  0  0  0  0  0  0
   20.8849   17.8323   15.9467 H   0  0  0  0  0  0  0  0  0  0  0  0
   20.0789   15.5091   16.8753 H   0  0  0  0  0  0  0  0  0  0  0  0
   19.9565   11.7991   13.7342 C   0  0  0  0  0  0  0  0  0  0  0  0
   20.5670   10.9635   12.8650 N   0  0  0  0  0  0  0  0  0  0  0  0
   21.7933   11.3029   12.4091 C   0  0  0  0  0  0  0  0  0  0  0  0
   22.3613   12.5076   12.8498 C   0  0  0  0  0  0  0  0  0  0  0  0
   21.6064   13.2761   13.7218 C   0  0  0  0  0  0  0  0  0  0  0  0
   20.3899   12.9853   14.2116 N   0  0  0  0  0  0  0  0  0  0  0  0
   22.3594   14.3960   13.9464 N   0  0  0  0  0  0  0  0  0  0  0  0
   23.4976   14.2647   13.2046 C   0  0  0  0  0  0  0  0  0  0  0  0
   23.5557   13.1260   12.5558 N   0  0  0  0  0  0  0  0  0  0  0  0
   22.4171   10.4638   11.4887 N   0  0  0  0  0  0  0  0  0  0  0  0
   21.7404    9.8996   10.9911 H   0  0  0  0  0  0  0  0  0  0  0  0
   23.1074   10.9554   10.9298 H   0  0  0  0  0  0  0  0  0  0  0  0
   24.6571   16.8503   16.3989 C   0  0  0  0  0  0  0  0  0  0  0  0
   24.9218   17.4373   17.6642 O   0  0  0  0  0  0  0  0  0  0  0  0
   25.5060   18.9479   17.7473 P   0  0  0  0  0  0  0  0  0  0  0  0
   26.3905   19.2135   18.9291 O   0  0  0  0  0  0  0  0  0  0  0  0
   26.6498   19.2989   16.0154 S   0  0  0  0  0  0  0  0  0  0  0  0
   26.9796   20.5497   16.3510 H   0  0  0  0  0  0  0  0  0  0  0  0
   24.2443   19.9385   17.6564 O   0  0  0  0  0  0  0  0  0  0  0  0
   22.9724   20.1622   18.8075 P   0  0  0  0  0  0  0  0  0  0  0  0
   21.9399   19.9217   17.7167 O   0  0  0  0  0  0  0  0  0  0  0  0
   23.3527   18.7026   19.4473 O   0  0  0  0  0  0  0  0  0  0  0  0
   24.2660   18.6528   19.7859 H   0  0  0  0  0  0  0  0  0  0  0  0
   21.7004   20.3859   19.9586 O   0  0  0  0  0  0  0  0  0  0  0  0
   20.4384   19.2427   19.6530 P   0  0  0  0  0  0  0  0  0  0  0  0
   20.5404   18.7373   21.0895 O   0  0  0  0  0  0  0  0  0  0  0  0
   19.3358   20.4296   19.5782 O   0  0  0  0  0  0  0  0  0  0  0  0
   19.1765   18.0994   19.3473 O   0  0  0  0  0  0  0  0  0  0  0  0
   18.9780   20.5902   20.4688 H   0  0  0  0  0  0  0  0  0  0  0  0
   19.3420   17.6058   18.5257 H   0  0  0  0  0  0  0  0  0  0  0  0
 10 11  1  0  0  0
 10 15  2  0  0  0
 11 12  2  0  0  0
 12 13  1  0  0  0
 12 19  1  0  0  0
 13 14  2  0  0  0
 13 18  1  0  0  0
 14 15  1  0  0  0
 14 16  1  0  0  0
 16 17  1  0  0  0
 16  1  1  0  0  0
 17 18  2  0  0  0
  1  2  1  0  0  0
  1  5  1  0  0  0
  2  3  1  0  0  0
  2  7  1  0  0  0
  3  4  1  0  0  0
  3  6  1  0  0  0
  4  5  1  0  0  0
  4 22  1  0  0  0
 22 23  1  0  0  0
 24 28  1  0  0  0
 24 26  1  0  0  0
 24 25  2  0  0  0
 24 23  1  0  0  0
 28 29  1  0  0  0
 29 30  2  0  0  0
 29 31  1  0  0  0
 29 33  1  0  0  0
 31 32  1  0  0  0
 33 34  1  0  0  0
 34 35  2  0  0  0
 34 36  1  0  0  0
 34 37  1  0  0  0
 36 38  1  0  0  0
 37 39  1  0  0  0
 26 27  1  0  0  0
  6  8  1  0  0  0
  7  9  1  0  0  0
 19 20  1  0  0  0
 19 21  1  0  0  0
M  END
> <minimizedAffinity>
-8.61996

$$$$



 39 41  0  0  0  0  0  0  0  0999 V2000
   23.7964   12.7445   14.4870 C   0  0  0  0  0  0  0  0  0  0  0  0
   24.0852   14.2322   14.2844 C   0  0  0  0  0  0  0  0  0  0  0  0
   25.2197   14.4487   15.2766 C   0  0  0  0  0  0  0  0  0  0  0  0
   24.8099   13.5732   16.4611 C   0  0  0  0  0  0  0  0  0  0  0  0
   24.0577   12.4759   15.8889 O   0  0  0  0  0  0  0  0  0  0  0  0
   26.4429   13.9966   14.6682 O   0  0  0  0  0  0  0  0  0  0  0  0
   24.4883   14.5838   12.9665 O   0  0  0  0  0  0  0  0  0  0  0  0
   26.5656   13.0467   14.8533 H   0  0  0  0  0  0  0  0  0  0  0  0
   25.4562   14.4421   12.9215 H   0  0  0  0  0  0  0  0  0  0  0  0
   19.9098   13.7184   16.2336 C   0  0  0  0  0  0  0  0  0  0  0  0
   18.8024   13.2319   15.6306 N   0  0  0  0  0  0  0  0  0  0  0  0
   18.9630   12.4259   14.5577 C   0  0  0  0  0  0  0  0  0  0  0  0
   20.2660   12.1477   14.1186 C   0  0  0  0  0  0  0  0  0  0  0  0
   21.3049   12.7390   14.8200 C   0  0  0  0  0  0  0  0  0  0  0  0
   21.2042   13.5395   15.8939 N   0  0  0  0  0  0  0  0  0  0  0  0
   22.4399   12.3494   14.1630 N   0  0  0  0  0  0  0  0  0  0  0  0
   22.0440   11.5755   13.1108 C   0  0  0  0  0  0  0  0  0  0  0  0
   20.7447   11.3993   13.0669 N   0  0  0  0  0  0  0  0  0  0  0  0
   17.8270   11.9450   13.9105 N   0  0  0  0  0  0  0  0  0  0  0  0
   17.0277   12.5407   14.0838 H   0  0  0  0  0  0  0  0  0  0  0  0
   18.0145   11.6947   12.9447 H   0  0  0  0  0  0  0  0  0  0  0  0
   23.9580   14.3603   17.4750 C   0  0  0  0  0  0  0  0  0  0  0  0
   24.5787   15.5857   17.8337 O   0  0  0  0  0  0  0  0  0  0  0  0
   23.6896   16.9369   17.9527 P   0  0  0  0  0  0  0  0  0  0  0  0
   24.4854   18.2060   18.0266 O   0  0  0  0  0  0  0  0  0  0  0  0
   22.4650   17.0619   16.2452 S   0  0  0  0  0  0  0  0  0  0  0  0
   21.8839   18.2093   16.6085 H   0  0  0  0  0  0  0  0  0  0  0  0
   22.6969   16.7301   19.1990 O   0  0  0  0  0  0  0  0  0  0  0  0
   21.2796   17.6368   19.6020 P   0  0  0  0  0  0  0  0  0  0  0  0
   21.1073   16.8094   20.8667 O   0  0  0  0  0  0  0  0  0  0  0  0
   22.2489   18.9032   19.9780 O   0  0  0  0  0  0  0  0  0  0  0  0
   22.7881   19.2159   19.2279 H   0  0  0  0  0  0  0  0  0  0  0  0
   19.8625   18.5435   20.0052 O   0  0  0  0  0  0  0  0  0  0  0  0
   20.1024   20.2049   19.5866 P   0  0  0  0  0  0  0  0  0  0  0  0
   18.5996   20.3765   19.3827 O   0  0  0  0  0  0  0  0  0  0  0  0
   20.4816   20.5711   21.1203 O   0  0  0  0  0  0  0  0  0  0  0  0
   20.3422   21.8662   19.1678 O   0  0  0  0  0  0  0  0  0  0  0  0
   19.6702   20.8073   21.6026 H   0  0  0  0  0  0  0  0  0  0  0  0
   21.0508   21.9629   18.5086 H   0  0  0  0  0  0  0  0  0  0  0  0
 10 11  1  0  0  0
 10 15  2  0  0  0
 11 12  2  0  0  0
 12 13  1  0  0  0
 12 19  1  0  0  0
 13 14  2  0  0  0
 13 18  1  0  0  0
 14 15  1  0  0  0
 14 16  1  0  0  0
 16 17  1  0  0  0
 16  1  1  0  0  0
 17 18  2  0  0  0
  1  2  1  0  0  0
  1  5  1  0  0  0
  2  3  1  0  0  0
  2  7  1  0  0  0
  3  4  1  0  0  0
  3  6  1  0  0  0
  4  5  1  0  0  0
  4 22  1  0  0  0
 22 23  1  0  0  0
 24 28  1  0  0  0
 24 26  1  0  0  0
 24 25  2  0  0  0
 24 23  1  0  0  0
 28 29  1  0  0  0
 29 30  2  0  0  0
 29 31  1  0  0  0
 29 33  1  0  0  0
 31 32  1  0  0  0
 33 34  1  0  0  0
 34 35  2  0  0  0
 34 36  1  0  0  0
 34 37  1  0  0  0
 36 38  1  0  0  0
 37 39  1  0  0  0
 26 27  1  0  0  0
  6  8  1  0  0  0
  7  9  1  0  0  0
 19 20  1  0  0  0
 19 21  1  0  0  0
M  END
> <minimizedAffinity>
-8.47700

$$$$



 39 41  0  0  0  0  0  0  0  0999 V2000
   15.9264   26.2313   28.8048 C   0  0  0  0  0  0  0  0  0  0  0  0
   15.2439   26.7581   27.5422 C   0  0  0  0  0  0  0  0  0  0  0  0
   14.4795   27.9518   28.0981 C   0  0  0  0  0  0  0  0  0  0  0  0
   14.0031   27.4484   29.4609 C   0  0  0  0  0  0  0  0  0  0  0  0
   15.0074   26.4997   29.8953 O   0  0  0  0  0  0  0  0  0  0  0  0
   15.3944   29.0559   28.2196 O   0  0  0  0  0  0  0  0  0  0  0  0
   16.1360   27.1613   26.5103 O   0  0  0  0  0  0  0  0  0  0  0  0
   15.8270   29.0242   29.0933 H   0  0  0  0  0  0  0  0  0  0  0  0
   16.3853   28.0889   26.7010 H   0  0  0  0  0  0  0  0  0  0  0  0
   18.4701   23.7986   26.2132 C   0  0  0  0  0  0  0  0  0  0  0  0
   18.6041   22.4859   26.5053 N   0  0  0  0  0  0  0  0  0  0  0  0
   17.8992   21.9895   27.5461 C   0  0  0  0  0  0  0  0  0  0  0  0
   17.0780   22.8623   28.2754 C   0  0  0  0  0  0  0  0  0  0  0  0
   17.0610   24.1894   27.8761 C   0  0  0  0  0  0  0  0  0  0  0  0
   17.7331   24.7344   26.8487 N   0  0  0  0  0  0  0  0  0  0  0  0
   16.2365   24.8157   28.7704 N   0  0  0  0  0  0  0  0  0  0  0  0
   15.8183   23.8662   29.6573 C   0  0  0  0  0  0  0  0  0  0  0  0
   16.2735   22.6685   29.3756 N   0  0  0  0  0  0  0  0  0  0  0  0
   18.0547   20.6447   27.8744 N   0  0  0  0  0  0  0  0  0  0  0  0
   18.9401   20.2867   27.5401 H   0  0  0  0  0  0  0  0  0  0  0  0
   17.8187   20.4581   28.8440 H   0  0  0  0  0  0  0  0  0  0  0  0
   12.6174   26.7827   29.3624 C   0  0  0  0  0  0  0  0  0  0  0  0
   12.7154   25.3679   29.4302 O   0  0  0  0  0  0  0  0  0  0  0  0
   12.2018   24.4622   28.1868 P   0  0  0  0  0  0  0  0  0  0  0  0
   13.2040   23.4684   27.6795 O   0  0  0  0  0  0  0  0  0  0  0  0
   10.5122   23.3807   28.8244 S   0  0  0  0  0  0  0  0  0  0  0  0
   10.3262   22.7639   27.6535 H   0  0  0  0  0  0  0  0  0  0  0  0
   11.6800   25.4789   27.0573 O   0  0  0  0  0  0  0  0  0  0  0  0
   10.0608   25.7200   26.4979 P   0  0  0  0  0  0  0  0  0  0  0  0
   10.3813   27.1749   26.1908 O   0  0  0  0  0  0  0  0  0  0  0  0
   10.4375   24.8472   25.1635 O   0  0  0  0  0  0  0  0  0  0  0  0
   10.7164   23.9340   25.3623 H   0  0  0  0  0  0  0  0  0  0  0  0
    8.4417   25.9612   25.9384 O   0  0  0  0  0  0  0  0  0  0  0  0
    8.3739   25.6841   24.2320 P   0  0  0  0  0  0  0  0  0  0  0  0
    6.8504   25.6188   24.2973 O   0  0  0  0  0  0  0  0  0  0  0  0
    8.8337   27.2102   23.9323 O   0  0  0  0  0  0  0  0  0  0  0  0
    8.3061   25.4069   22.5258 O   0  0  0  0  0  0  0  0  0  0  0  0
    8.0445   27.7764   23.8742 H   0  0  0  0  0  0  0  0  0  0  0  0
    8.9246   24.7050   22.2597 H   0  0  0  0  0  0  0  0  0  0  0  0
 10 11  1  0  0  0
 10 15  2  0  0  0
 11 12  2  0  0  0
 12 13  1  0  0  0
 12 19  1  0  0  0
 13 14  2  0  0  0
 13 18  1  0  0  0
 14 15  1  0  0  0
 14 16  1  0  0  0
 16 17  1  0  0  0
 16  1  1  0  0  0
 17 18  2  0  0  0
  1  2  1  0  0  0
  1  5  1  0  0  0
  2  3  1  0  0  0
  2  7  1  0  0  0
  3  4  1  0  0  0
  3  6  1  0  0  0
  4  5  1  0  0  0
  4 22  1  0  0  0
 22 23  1  0  0  0
 24 28  1  0  0  0
 24 26  1  0  0  0
 24 25  2  0  0  0
 24 23  1  0  0  0
 28 29  1  0  0  0
 29 30  2  0  0  0
 29 31  1  0  0  0
 29 33  1  0  0  0
 31 32  1  0  0  0
 33 34  1  0  0  0
 34 35  2  0  0  0
 34 36  1  0  0  0
 34 37  1  0  0  0
 36 38  1  0  0  0
 37 39  1  0  0  0
 26 27  1  0  0  0
  6  8  1  0  0  0
  7  9  1  0  0  0
 19 20  1  0  0  0
 19 21  1  0  0  0
M  END
> <minimizedAffinity>
-8.46880

$$$$
