


 39 43  0  0  0  0  0  0  0  0999 V2000
    8.5450   18.6211   17.5668 C   0  0  0  0  0  0  0  0  0  0  0  0
    9.7767   17.7569   17.5163 C   0  0  0  0  0  0  0  0  0  0  0  0
   10.3133   17.4533   16.2549 C   0  0  0  0  0  0  0  0  0  0  0  0
   11.4756   16.6896   16.1243 C   0  0  0  0  0  0  0  0  0  0  0  0
   12.1441   16.2356   17.2553 C   0  0  0  0  0  0  0  0  0  0  0  0
   11.5970   16.5142   18.5071 C   0  0  0  0  0  0  0  0  0  0  0  0
   10.3818   17.2163   18.6681 C   0  0  0  0  0  0  0  0  0  0  0  0
   13.3560   15.5060   17.2118 N   0  0  0  0  0  0  0  0  0  0  0  0
   13.6673   14.4002   17.9770 C   0  0  0  0  0  0  0  0  0  0  0  0
   12.9800   13.9117   18.8709 O   0  0  0  0  0  0  0  0  0  0  0  0
   14.0931   15.9063   16.6433 H   0  0  0  0  0  0  0  0  0  0  0  0
   15.0082   13.7972   17.7301 C   0  0  0  0  0  0  0  0  0  0  0  0
   15.7607   13.4072   18.8431 C   0  0  0  0  0  0  0  0  0  0  0  0
   16.9930   12.7820   18.6719 C   0  0  0  0  0  0  0  0  0  0  0  0
   17.4785   12.5093   17.3834 C   0  0  0  0  0  0  0  0  0  0  0  0
   16.7227   12.9093   16.2709 C   0  0  0  0  0  0  0  0  0  0  0  0
   15.4900   13.5481   16.4387 C   0  0  0  0  0  0  0  0  0  0  0  0
   18.7486   11.6942   17.2203 C   0  0  0  0  0  0  0  0  0  0  0  0
   19.4897   12.0788   16.0121 N   0  0  0  0  0  0  0  0  0  0  0  0
   20.8643   12.5281   16.3098 C   0  0  0  0  0  0  0  0  0  0  0  0
   21.6102   12.9600   15.0279 C   0  0  0  0  0  0  0  0  0  0  0  0
   21.6662   11.9303   13.9717 N   0  0  0  0  0  0  0  0  0  0  0  0
   20.3045   11.4057   13.7398 C   0  0  0  0  0  0  0  0  0  0  0  0
   19.5251   10.9949   15.0168 C   0  0  0  0  0  0  0  0  0  0  0  0
   22.6074   10.8678   14.3127 C   0  0  0  0  0  0  0  0  0  0  0  0
    9.7915   17.3324   19.9421 N   0  0  0  0  0  0  0  0  0  0  0  0
    9.5129   16.4840   20.4124 H   0  0  0  0  0  0  0  0  0  0  0  0
   10.0080   18.3262   20.9051 C   0  0  0  0  0  0  0  0  0  0  0  0
    9.3104   19.4608   20.7854 N   0  0  0  0  0  0  0  0  0  0  0  0
    9.4788   20.3824   21.7564 C   0  0  0  0  0  0  0  0  0  0  0  0
   10.2747   20.1956   22.8636 C   0  0  0  0  0  0  0  0  0  0  0  0
   10.9400   18.9915   22.9296 C   0  0  0  0  0  0  0  0  0  0  0  0
   10.8238   18.0838   21.9398 N   0  0  0  0  0  0  0  0  0  0  0  0
   11.7652   18.5504   24.0687 C   0  0  0  0  0  0  0  0  0  0  0  0
   11.1733   18.1635   25.2851 C   0  0  0  0  0  0  0  0  0  0  0  0
   11.9520   17.7743   26.3729 C   0  0  0  0  0  0  0  0  0  0  0  0
   13.3249   17.7753   26.2223 C   0  0  0  0  0  0  0  0  0  0  0  0
   13.9490   18.1220   25.0768 N   0  0  0  0  0  0  0  0  0  0  0  0
   13.1579   18.4944   24.0380 C   0  0  0  0  0  0  0  0  0  0  0  0
  1  2  1  0  0  0
  2  3  1  0  0  0
  2  7  2  0  0  0
  3  4  2  0  0  0
  4  5  1  0  0  0
  5  6  2  0  0  0
  5  8  1  0  0  0
  6  7  1  0  0  0
  7 26  1  0  0  0
 26 28  1  0  0  0
 26 27  1  0  0  0
 28 29  1  0  0  0
 28 33  2  0  0  0
 29 30  2  0  0  0
 30 31  1  0  0  0
 31 32  2  0  0  0
 32 33  1  0  0  0
 32 34  1  0  0  0
 34 35  1  0  0  0
 34 39  2  0  0  0
 35 36  2  0  0  0
 36 37  1  0  0  0
 37 38  2  0  0  0
 38 39  1  0  0  0
  8  9  1  0  0  0
  8 11  1  0  0  0
  9 10  2  0  0  0
  9 12  1  0  0  0
 12 13  1  0  0  0
 12 17  2  0  0  0
 13 14  2  0  0  0
 14 15  1  0  0  0
 15 16  2  0  0  0
 15 18  1  0  0  0
 16 17  1  0  0  0
 18 19  1  0  0  0
 19 20  1  0  0  0
 19 24  1  0  0  0
 20 21  1  0  0  0
 21 22  1  0  0  0
 22 23  1  0  0  0
 22 25  1  0  0  0
 23 24  1  0  0  0
M  END
> <minimizedAffinity>
-10.28478

$$$$



 39 43  0  0  0  0  0  0  0  0999 V2000
    8.6210   18.4236   17.8624 C   0  0  0  0  0  0  0  0  0  0  0  0
    9.8723   17.5933   17.7573 C   0  0  0  0  0  0  0  0  0  0  0  0
   10.4019   17.3647   16.4772 C   0  0  0  0  0  0  0  0  0  0  0  0
   11.5805   16.6369   16.2976 C   0  0  0  0  0  0  0  0  0  0  0  0
   12.2724   16.1448   17.3981 C   0  0  0  0  0  0  0  0  0  0  0  0
   11.7328   16.3485   18.6675 C   0  0  0  0  0  0  0  0  0  0  0  0
   10.5031   17.0120   18.8750 C   0  0  0  0  0  0  0  0  0  0  0  0
   13.5008   15.4479   17.3068 N   0  0  0  0  0  0  0  0  0  0  0  0
   13.6896   14.0996   17.5337 C   0  0  0  0  0  0  0  0  0  0  0  0
   12.8441   13.2975   17.9233 O   0  0  0  0  0  0  0  0  0  0  0  0
   14.3250   16.0209   17.1685 H   0  0  0  0  0  0  0  0  0  0  0  0
   15.0829   13.6006   17.3546 C   0  0  0  0  0  0  0  0  0  0  0  0
   15.8043   13.2595   18.5036 C   0  0  0  0  0  0  0  0  0  0  0  0
   17.0874   12.7296   18.3942 C   0  0  0  0  0  0  0  0  0  0  0  0
   17.6576   12.5038   17.1316 C   0  0  0  0  0  0  0  0  0  0  0  0
   16.9321   12.8546   15.9830 C   0  0  0  0  0  0  0  0  0  0  0  0
   15.6479   13.3980   16.0890 C   0  0  0  0  0  0  0  0  0  0  0  0
   18.9921   11.7873   17.0316 C   0  0  0  0  0  0  0  0  0  0  0  0
   19.6886   12.1083   15.7792 N   0  0  0  0  0  0  0  0  0  0  0  0
   21.0470   12.6404   16.0069 C   0  0  0  0  0  0  0  0  0  0  0  0
   21.7446   13.0031   14.6772 C   0  0  0  0  0  0  0  0  0  0  0  0
   21.8258   11.8969   13.7031 N   0  0  0  0  0  0  0  0  0  0  0  0
   20.4853   11.2956   13.5464 C   0  0  0  0  0  0  0  0  0  0  0  0
   19.7531   10.9522   14.8704 C   0  0  0  0  0  0  0  0  0  0  0  0
   22.8223   10.9076   14.1021 C   0  0  0  0  0  0  0  0  0  0  0  0
    9.9246   17.0514   20.1590 N   0  0  0  0  0  0  0  0  0  0  0  0
    9.8890   16.1922   20.6874 H   0  0  0  0  0  0  0  0  0  0  0  0
    9.8856   18.1280   21.0543 C   0  0  0  0  0  0  0  0  0  0  0  0
   10.9732   18.3466   21.8009 N   0  0  0  0  0  0  0  0  0  0  0  0
   10.9473   19.4260   22.6101 C   0  0  0  0  0  0  0  0  0  0  0  0
    9.9024   20.3200   22.6656 C   0  0  0  0  0  0  0  0  0  0  0  0
    8.8295   20.0423   21.8478 C   0  0  0  0  0  0  0  0  0  0  0  0
    8.8187   18.9380   21.0748 N   0  0  0  0  0  0  0  0  0  0  0  0
    7.6529   20.9148   21.6825 C   0  0  0  0  0  0  0  0  0  0  0  0
    6.9039   20.9029   20.4914 C   0  0  0  0  0  0  0  0  0  0  0  0
    5.8090   21.7475   20.3211 C   0  0  0  0  0  0  0  0  0  0  0  0
    5.4762   22.5966   21.3583 C   0  0  0  0  0  0  0  0  0  0  0  0
    6.1473   22.6430   22.5285 N   0  0  0  0  0  0  0  0  0  0  0  0
    7.2077   21.8049   22.6589 C   0  0  0  0  0  0  0  0  0  0  0  0
  1  2  1  0  0  0
  2  3  1  0  0  0
  2  7  2  0  0  0
  3  4  2  0  0  0
  4  5  1  0  0  0
  5  6  2  0  0  0
  5  8  1  0  0  0
  6  7  1  0  0  0
  7 26  1  0  0  0
 26 28  1  0  0  0
 26 27  1  0  0  0
 28 29  1  0  0  0
 28 33  2  0  0  0
 29 30  2  0  0  0
 30 31  1  0  0  0
 31 32  2  0  0  0
 32 33  1  0  0  0
 32 34  1  0  0  0
 34 35  1  0  0  0
 34 39  2  0  0  0
 35 36  2  0  0  0
 36 37  1  0  0  0
 37 38  2  0  0  0
 38 39  1  0  0  0
  8  9  1  0  0  0
  8 11  1  0  0  0
  9 10  2  0  0  0
  9 12  1  0  0  0
 12 13  1  0  0  0
 12 17  2  0  0  0
 13 14  2  0  0  0
 14 15  1  0  0  0
 15 16  2  0  0  0
 15 18  1  0  0  0
 16 17  1  0  0  0
 18 19  1  0  0  0
 19 20  1  0  0  0
 19 24  1  0  0  0
 20 21  1  0  0  0
 21 22  1  0  0  0
 22 23  1  0  0  0
 22 25  1  0  0  0
 23 24  1  0  0  0
M  END
> <minimizedAffinity>
-10.22175

$$$$



 39 43  0  0  0  0  0  0  0  0999 V2000
    6.1178   20.4224   22.6444 C   0  0  0  0  0  0  0  0  0  0  0  0
    7.3208   19.8731   23.3636 C   0  0  0  0  0  0  0  0  0  0  0  0
    7.1235   19.3064   24.6329 C   0  0  0  0  0  0  0  0  0  0  0  0
    8.1814   18.7410   25.3488 C   0  0  0  0  0  0  0  0  0  0  0  0
    9.4571   18.7041   24.7980 C   0  0  0  0  0  0  0  0  0  0  0  0
    9.6587   19.2905   23.5492 C   0  0  0  0  0  0  0  0  0  0  0  0
    8.6258   19.9389   22.8364 C   0  0  0  0  0  0  0  0  0  0  0  0
   10.5694   18.1004   25.4314 N   0  0  0  0  0  0  0  0  0  0  0  0
   11.3714   18.6810   26.3931 C   0  0  0  0  0  0  0  0  0  0  0  0
   11.3015   19.8370   26.8040 O   0  0  0  0  0  0  0  0  0  0  0  0
   10.8575   17.2034   25.0585 H   0  0  0  0  0  0  0  0  0  0  0  0
   12.4742   17.8272   26.9198 C   0  0  0  0  0  0  0  0  0  0  0  0
   13.6606   18.4611   27.3041 C   0  0  0  0  0  0  0  0  0  0  0  0
   14.7015   17.7224   27.8607 C   0  0  0  0  0  0  0  0  0  0  0  0
   14.5602   16.3417   28.0701 C   0  0  0  0  0  0  0  0  0  0  0  0
   13.3708   15.7102   27.6760 C   0  0  0  0  0  0  0  0  0  0  0  0
   12.3276   16.4467   27.1057 C   0  0  0  0  0  0  0  0  0  0  0  0
   15.6445   15.5839   28.8147 C   0  0  0  0  0  0  0  0  0  0  0  0
   16.6822   15.0847   27.9032 N   0  0  0  0  0  0  0  0  0  0  0  0
   17.7808   16.0525   27.7115 C   0  0  0  0  0  0  0  0  0  0  0  0
   18.8406   15.5191   26.7223 C   0  0  0  0  0  0  0  0  0  0  0  0
   19.4193   14.2108   27.0865 N   0  0  0  0  0  0  0  0  0  0  0  0
   18.3223   13.2645   27.3768 C   0  0  0  0  0  0  0  0  0  0  0  0
   17.2297   13.7915   28.3440 C   0  0  0  0  0  0  0  0  0  0  0  0
   20.3446   14.3314   28.2092 C   0  0  0  0  0  0  0  0  0  0  0  0
    8.9158   20.6525   21.6567 N   0  0  0  0  0  0  0  0  0  0  0  0
    9.6846   21.3059   21.6771 H   0  0  0  0  0  0  0  0  0  0  0  0
    8.7087   20.2481   20.3317 C   0  0  0  0  0  0  0  0  0  0  0  0
    7.8428   20.9578   19.6003 N   0  0  0  0  0  0  0  0  0  0  0  0
    7.7030   20.5987   18.3073 C   0  0  0  0  0  0  0  0  0  0  0  0
    8.4278   19.5952   17.7056 C   0  0  0  0  0  0  0  0  0  0  0  0
    9.3187   18.9278   18.5166 C   0  0  0  0  0  0  0  0  0  0  0  0
    9.4294   19.2396   19.8234 N   0  0  0  0  0  0  0  0  0  0  0  0
   10.2570   17.8887   18.0553 C   0  0  0  0  0  0  0  0  0  0  0  0
   10.5108   17.6989   16.6844 C   0  0  0  0  0  0  0  0  0  0  0  0
   11.3745   16.6983   16.2440 C   0  0  0  0  0  0  0  0  0  0  0  0
   11.9791   15.8980   17.1934 C   0  0  0  0  0  0  0  0  0  0  0  0
   11.7861   16.0412   18.5216 N   0  0  0  0  0  0  0  0  0  0  0  0
   10.9389   17.0273   18.9136 C   0  0  0  0  0  0  0  0  0  0  0  0
  1  2  1  0  0  0
  2  3  1  0  0  0
  2  7  2  0  0  0
  3  4  2  0  0  0
  4  5  1  0  0  0
  5  6  2  0  0  0
  5  8  1  0  0  0
  6  7  1  0  0  0
  7 26  1  0  0  0
 26 28  1  0  0  0
 26 27  1  0  0  0
 28 29  1  0  0  0
 28 33  2  0  0  0
 29 30  2  0  0  0
 30 31  1  0  0  0
 31 32  2  0  0  0
 32 33  1  0  0  0
 32 34  1  0  0  0
 34 35  1  0  0  0
 34 39  2  0  0  0
 35 36  2  0  0  0
 36 37  1  0  0  0
 37 38  2  0  0  0
 38 39  1  0  0  0
  8  9  1  0  0  0
  8 11  1  0  0  0
  9 10  2  0  0  0
  9 12  1  0  0  0
 12 13  1  0  0  0
 12 17  2  0  0  0
 13 14  2  0  0  0
 14 15  1  0  0  0
 15 16  2  0  0  0
 15 18  1  0  0  0
 16 17  1  0  0  0
 18 19  1  0  0  0
 19 20  1  0  0  0
 19 24  1  0  0  0
 20 21  1  0  0  0
 21 22  1  0  0  0
 22 23  1  0  0  0
 22 25  1  0  0  0
 23 24  1  0  0  0
M  END
> <minimizedAffinity>
-10.20753

$$$$



 39 43  0  0  0  0  0  0  0  0999 V2000
   13.6051   12.9309   20.5411 C   0  0  0  0  0  0  0  0  0  0  0  0
   14.8496   12.7819   19.7072 C   0  0  0  0  0  0  0  0  0  0  0  0
   15.7431   11.7517   20.0412 C   0  0  0  0  0  0  0  0  0  0  0  0
   16.9009   11.5231   19.2938 C   0  0  0  0  0  0  0  0  0  0  0  0
   17.1768   12.3030   18.1768 C   0  0  0  0  0  0  0  0  0  0  0  0
   16.3038   13.3430   17.8605 C   0  0  0  0  0  0  0  0  0  0  0  0
   15.1676   13.6481   18.6425 C   0  0  0  0  0  0  0  0  0  0  0  0
   18.2960   12.1011   17.3345 N   0  0  0  0  0  0  0  0  0  0  0  0
   18.2828   12.0858   15.9543 C   0  0  0  0  0  0  0  0  0  0  0  0
   17.2930   12.1694   15.2310 O   0  0  0  0  0  0  0  0  0  0  0  0
   19.1571   11.8372   17.7989 H   0  0  0  0  0  0  0  0  0  0  0  0
   19.6026   11.8705   15.2954 C   0  0  0  0  0  0  0  0  0  0  0  0
   19.6407   11.0370   14.1725 C   0  0  0  0  0  0  0  0  0  0  0  0
   20.8336   10.8485   13.4795 C   0  0  0  0  0  0  0  0  0  0  0  0
   22.0015   11.5157   13.8809 C   0  0  0  0  0  0  0  0  0  0  0  0
   21.9589   12.3447   15.0121 C   0  0  0  0  0  0  0  0  0  0  0  0
   20.7655   12.5272   15.7179 C   0  0  0  0  0  0  0  0  0  0  0  0
   23.2511   11.4155   13.0249 C   0  0  0  0  0  0  0  0  0  0  0  0
   24.4726   11.4621   13.8389 N   0  0  0  0  0  0  0  0  0  0  0  0
   25.3710   10.3198   13.5778 C   0  0  0  0  0  0  0  0  0  0  0  0
   26.6305   10.3729   14.4707 C   0  0  0  0  0  0  0  0  0  0  0  0
   27.4088   11.6226   14.3634 N   0  0  0  0  0  0  0  0  0  0  0  0
   26.4954   12.7726   14.5251 C   0  0  0  0  0  0  0  0  0  0  0  0
   25.2081   12.7245   13.6605 C   0  0  0  0  0  0  0  0  0  0  0  0
   28.1447   11.6856   13.1043 C   0  0  0  0  0  0  0  0  0  0  0  0
   14.4089   14.8043   18.3728 N   0  0  0  0  0  0  0  0  0  0  0  0
   14.8836   15.6948   18.3887 H   0  0  0  0  0  0  0  0  0  0  0  0
   13.2708   14.9194   17.5644 C   0  0  0  0  0  0  0  0  0  0  0  0
   12.7837   13.7970   17.0248 N   0  0  0  0  0  0  0  0  0  0  0  0
   11.6493   13.9127   16.3034 C   0  0  0  0  0  0  0  0  0  0  0  0
   10.9578   15.0917   16.1424 C   0  0  0  0  0  0  0  0  0  0  0  0
   11.5073   16.1988   16.7501 C   0  0  0  0  0  0  0  0  0  0  0  0
   12.6690   16.1085   17.4281 N   0  0  0  0  0  0  0  0  0  0  0  0
   10.8834   17.5340   16.7830 C   0  0  0  0  0  0  0  0  0  0  0  0
   10.9389   18.3872   15.6656 C   0  0  0  0  0  0  0  0  0  0  0  0
   10.3757   19.6609   15.7038 C   0  0  0  0  0  0  0  0  0  0  0  0
    9.7565   20.0626   16.8712 C   0  0  0  0  0  0  0  0  0  0  0  0
    9.6592   19.2840   17.9695 N   0  0  0  0  0  0  0  0  0  0  0  0
   10.2185   18.0489   17.8950 C   0  0  0  0  0  0  0  0  0  0  0  0
  1  2  1  0  0  0
  2  3  1  0  0  0
  2  7  2  0  0  0
  3  4  2  0  0  0
  4  5  1  0  0  0
  5  6  2  0  0  0
  5  8  1  0  0  0
  6  7  1  0  0  0
  7 26  1  0  0  0
 26 28  1  0  0  0
 26 27  1  0  0  0
 28 29  1  0  0  0
 28 33  2  0  0  0
 29 30  2  0  0  0
 30 31  1  0  0  0
 31 32  2  0  0  0
 32 33  1  0  0  0
 32 34  1  0  0  0
 34 35  1  0  0  0
 34 39  2  0  0  0
 35 36  2  0  0  0
 36 37  1  0  0  0
 37 38  2  0  0  0
 38 39  1  0  0  0
  8  9  1  0  0  0
  8 11  1  0  0  0
  9 10  2  0  0  0
  9 12  1  0  0  0
 12 13  1  0  0  0
 12 17  2  0  0  0
 13 14  2  0  0  0
 14 15  1  0  0  0
 15 16  2  0  0  0
 15 18  1  0  0  0
 16 17  1  0  0  0
 18 19  1  0  0  0
 19 20  1  0  0  0
 19 24  1  0  0  0
 20 21  1  0  0  0
 21 22  1  0  0  0
 22 23  1  0  0  0
 22 25  1  0  0  0
 23 24  1  0  0  0
M  END
> <minimizedAffinity>
-10.13317

$$$$



 39 43  0  0  0  0  0  0  0  0999 V2000
    5.4406   22.3150   20.6205 C   0  0  0  0  0  0  0  0  0  0  0  0
    6.5253   21.9495   21.5983 C   0  0  0  0  0  0  0  0  0  0  0  0
    6.1653   21.7845   22.9453 C   0  0  0  0  0  0  0  0  0  0  0  0
    7.1052   21.4086   23.9079 C   0  0  0  0  0  0  0  0  0  0  0  0
    8.4223   21.1611   23.5392 C   0  0  0  0  0  0  0  0  0  0  0  0
    8.7860   21.3507   22.2067 C   0  0  0  0  0  0  0  0  0  0  0  0
    7.8766   21.8059   21.2262 C   0  0  0  0  0  0  0  0  0  0  0  0
    9.4214   20.7225   24.4405 N   0  0  0  0  0  0  0  0  0  0  0  0
    9.7426   19.4100   24.7226 C   0  0  0  0  0  0  0  0  0  0  0  0
    9.1695   18.4090   24.2988 O   0  0  0  0  0  0  0  0  0  0  0  0
    9.8574   21.4439   25.0027 H   0  0  0  0  0  0  0  0  0  0  0  0
   10.8507   19.2090   25.6993 C   0  0  0  0  0  0  0  0  0  0  0  0
   11.4695   17.9547   25.7316 C   0  0  0  0  0  0  0  0  0  0  0  0
   12.5505   17.7281   26.5796 C   0  0  0  0  0  0  0  0  0  0  0  0
   13.0494   18.7624   27.3869 C   0  0  0  0  0  0  0  0  0  0  0  0
   12.4201   20.0161   27.3555 C   0  0  0  0  0  0  0  0  0  0  0  0
   11.3267   20.2442   26.5139 C   0  0  0  0  0  0  0  0  0  0  0  0
   14.3186   18.5385   28.1888 C   0  0  0  0  0  0  0  0  0  0  0  0
   15.1665   17.5019   27.5860 N   0  0  0  0  0  0  0  0  0  0  0  0
   16.4296   18.0454   27.0482 C   0  0  0  0  0  0  0  0  0  0  0  0
   17.2868   16.9424   26.3887 C   0  0  0  0  0  0  0  0  0  0  0  0
   17.5990   15.7978   27.2672 N   0  0  0  0  0  0  0  0  0  0  0  0
   16.3483   15.3125   27.8863 C   0  0  0  0  0  0  0  0  0  0  0  0
   15.4564   16.4082   28.5274 C   0  0  0  0  0  0  0  0  0  0  0  0
   18.5997   16.1525   28.2691 C   0  0  0  0  0  0  0  0  0  0  0  0
    8.3305   22.1335   19.9333 N   0  0  0  0  0  0  0  0  0  0  0  0
    9.0913   22.7918   19.8527 H   0  0  0  0  0  0  0  0  0  0  0  0
    8.3086   21.3336   18.7836 C   0  0  0  0  0  0  0  0  0  0  0  0
    7.6107   21.7829   17.7351 N   0  0  0  0  0  0  0  0  0  0  0  0
    7.6529   21.0357   16.6125 C   0  0  0  0  0  0  0  0  0  0  0  0
    8.4017   19.8885   16.4804 C   0  0  0  0  0  0  0  0  0  0  0  0
    9.1144   19.5043   17.5946 C   0  0  0  0  0  0  0  0  0  0  0  0
    9.0387   20.2112   18.7399 N   0  0  0  0  0  0  0  0  0  0  0  0
   10.0499   18.3659   17.6405 C   0  0  0  0  0  0  0  0  0  0  0  0
   10.2743   17.6606   18.8372 C   0  0  0  0  0  0  0  0  0  0  0  0
   11.1798   16.6031   18.8904 C   0  0  0  0  0  0  0  0  0  0  0  0
   11.8502   16.2631   17.7318 C   0  0  0  0  0  0  0  0  0  0  0  0
   11.6664   16.8925   16.5520 N   0  0  0  0  0  0  0  0  0  0  0  0
   10.7756   17.9173   16.5380 C   0  0  0  0  0  0  0  0  0  0  0  0
  1  2  1  0  0  0
  2  3  1  0  0  0
  2  7  2  0  0  0
  3  4  2  0  0  0
  4  5  1  0  0  0
  5  6  2  0  0  0
  5  8  1  0  0  0
  6  7  1  0  0  0
  7 26  1  0  0  0
 26 28  1  0  0  0
 26 27  1  0  0  0
 28 29  1  0  0  0
 28 33  2  0  0  0
 29 30  2  0  0  0
 30 31  1  0  0  0
 31 32  2  0  0  0
 32 33  1  0  0  0
 32 34  1  0  0  0
 34 35  1  0  0  0
 34 39  2  0  0  0
 35 36  2  0  0  0
 36 37  1  0  0  0
 37 38  2  0  0  0
 38 39  1  0  0  0
  8  9  1  0  0  0
  8 11  1  0  0  0
  9 10  2  0  0  0
  9 12  1  0  0  0
 12 13  1  0  0  0
 12 17  2  0  0  0
 13 14  2  0  0  0
 14 15  1  0  0  0
 15 16  2  0  0  0
 15 18  1  0  0  0
 16 17  1  0  0  0
 18 19  1  0  0  0
 19 20  1  0  0  0
 19 24  1  0  0  0
 20 21  1  0  0  0
 21 22  1  0  0  0
 22 23  1  0  0  0
 22 25  1  0  0  0
 23 24  1  0  0  0
M  END
> <minimizedAffinity>
-9.71127

$$$$



 39 43  0  0  0  0  0  0  0  0999 V2000
    8.1173   21.1103   21.3739 C   0  0  0  0  0  0  0  0  0  0  0  0
    9.0155   20.4510   22.3864 C   0  0  0  0  0  0  0  0  0  0  0  0
    8.6056   19.2202   22.9234 C   0  0  0  0  0  0  0  0  0  0  0  0
    9.4000   18.5263   23.8391 C   0  0  0  0  0  0  0  0  0  0  0  0
   10.6371   19.0348   24.2173 C   0  0  0  0  0  0  0  0  0  0  0  0
   11.0325   20.2698   23.7049 C   0  0  0  0  0  0  0  0  0  0  0  0
   10.2169   21.0316   22.8389 C   0  0  0  0  0  0  0  0  0  0  0  0
   11.5260   18.3685   25.0940 N   0  0  0  0  0  0  0  0  0  0  0  0
   11.7589   18.6912   26.4157 C   0  0  0  0  0  0  0  0  0  0  0  0
   11.2940   19.6499   27.0279 O   0  0  0  0  0  0  0  0  0  0  0  0
   12.1178   17.6629   24.6715 H   0  0  0  0  0  0  0  0  0  0  0  0
   12.7330   17.8207   27.1340 C   0  0  0  0  0  0  0  0  0  0  0  0
   12.4676   16.4479   27.1799 C   0  0  0  0  0  0  0  0  0  0  0  0
   13.3730   15.5788   27.7830 C   0  0  0  0  0  0  0  0  0  0  0  0
   14.5736   16.0658   28.3229 C   0  0  0  0  0  0  0  0  0  0  0  0
   14.8310   17.4445   28.2803 C   0  0  0  0  0  0  0  0  0  0  0  0
   13.9186   18.3221   27.6860 C   0  0  0  0  0  0  0  0  0  0  0  0
   15.6126   15.0866   28.8386 C   0  0  0  0  0  0  0  0  0  0  0  0
   16.6430   14.8064   27.8303 N   0  0  0  0  0  0  0  0  0  0  0  0
   17.6316   15.8967   27.7127 C   0  0  0  0  0  0  0  0  0  0  0  0
   18.6830   15.5941   26.6222 C   0  0  0  0  0  0  0  0  0  0  0  0
   19.4034   14.3178   26.7990 N   0  0  0  0  0  0  0  0  0  0  0  0
   18.4195   13.2372   27.0168 C   0  0  0  0  0  0  0  0  0  0  0  0
   17.3350   13.5327   28.0861 C   0  0  0  0  0  0  0  0  0  0  0  0
   20.3719   14.3989   27.8882 C   0  0  0  0  0  0  0  0  0  0  0  0
   10.5922   22.3406   22.4775 N   0  0  0  0  0  0  0  0  0  0  0  0
   10.2583   22.7011   21.5960 H   0  0  0  0  0  0  0  0  0  0  0  0
   10.8748   23.4208   23.3233 C   0  0  0  0  0  0  0  0  0  0  0  0
   10.0270   23.6506   24.3316 N   0  0  0  0  0  0  0  0  0  0  0  0
   10.3468   24.6519   25.1775 C   0  0  0  0  0  0  0  0  0  0  0  0
   11.5004   25.3969   25.0855 C   0  0  0  0  0  0  0  0  0  0  0  0
   12.3364   25.0834   24.0368 C   0  0  0  0  0  0  0  0  0  0  0  0
   12.0034   24.1222   23.1523 N   0  0  0  0  0  0  0  0  0  0  0  0
   13.6606   25.6899   23.8095 C   0  0  0  0  0  0  0  0  0  0  0  0
   13.8119   27.0858   23.7179 C   0  0  0  0  0  0  0  0  0  0  0  0
   15.0575   27.6604   23.4739 C   0  0  0  0  0  0  0  0  0  0  0  0
   16.1433   26.8194   23.3276 C   0  0  0  0  0  0  0  0  0  0  0  0
   16.0628   25.4751   23.4192 N   0  0  0  0  0  0  0  0  0  0  0  0
   14.8333   24.9511   23.6589 C   0  0  0  0  0  0  0  0  0  0  0  0
  1  2  1  0  0  0
  2  3  1  0  0  0
  2  7  2  0  0  0
  3  4  2  0  0  0
  4  5  1  0  0  0
  5  6  2  0  0  0
  5  8  1  0  0  0
  6  7  1  0  0  0
  7 26  1  0  0  0
 26 28  1  0  0  0
 26 27  1  0  0  0
 28 29  1  0  0  0
 28 33  2  0  0  0
 29 30  2  0  0  0
 30 31  1  0  0  0
 31 32  2  0  0  0
 32 33  1  0  0  0
 32 34  1  0  0  0
 34 35  1  0  0  0
 34 39  2  0  0  0
 35 36  2  0  0  0
 36 37  1  0  0  0
 37 38  2  0  0  0
 38 39  1  0  0  0
  8  9  1  0  0  0
  8 11  1  0  0  0
  9 10  2  0  0  0
  9 12  1  0  0  0
 12 13  1  0  0  0
 12 17  2  0  0  0
 13 14  2  0  0  0
 14 15  1  0  0  0
 15 16  2  0  0  0
 15 18  1  0  0  0
 16 17  1  0  0  0
 18 19  1  0  0  0
 19 20  1  0  0  0
 19 24  1  0  0  0
 20 21  1  0  0  0
 21 22  1  0  0  0
 22 23  1  0  0  0
 22 25  1  0  0  0
 23 24  1  0  0  0
M  END
> <minimizedAffinity>
-9.63679

$$$$



 39 43  0  0  0  0  0  0  0  0999 V2000
    6.5083   18.9900   24.2698 C   0  0  0  0  0  0  0  0  0  0  0  0
    7.9361   19.0058   24.7468 C   0  0  0  0  0  0  0  0  0  0  0  0
    8.1767   19.3588   26.0843 C   0  0  0  0  0  0  0  0  0  0  0  0
    9.4691   19.3607   26.6142 C   0  0  0  0  0  0  0  0  0  0  0  0
   10.5485   18.9814   25.8250 C   0  0  0  0  0  0  0  0  0  0  0  0
   10.3134   18.6566   24.4896 C   0  0  0  0  0  0  0  0  0  0  0  0
    9.0292   18.7213   23.9046 C   0  0  0  0  0  0  0  0  0  0  0  0
   11.8794   18.9016   26.2995 N   0  0  0  0  0  0  0  0  0  0  0  0
   12.5844   17.7421   26.5525 C   0  0  0  0  0  0  0  0  0  0  0  0
   12.1539   16.5934   26.4804 O   0  0  0  0  0  0  0  0  0  0  0  0
   12.3031   19.7790   26.5777 H   0  0  0  0  0  0  0  0  0  0  0  0
   13.9840   17.9255   27.0318 C   0  0  0  0  0  0  0  0  0  0  0  0
   14.4937   16.9800   27.9281 C   0  0  0  0  0  0  0  0  0  0  0  0
   15.8143   17.0654   28.3614 C   0  0  0  0  0  0  0  0  0  0  0  0
   16.6555   18.0811   27.8807 C   0  0  0  0  0  0  0  0  0  0  0  0
   16.1367   19.0308   26.9876 C   0  0  0  0  0  0  0  0  0  0  0  0
   14.8075   18.9553   26.5592 C   0  0  0  0  0  0  0  0  0  0  0  0
   18.1285   18.0673   28.2471 C   0  0  0  0  0  0  0  0  0  0  0  0
   18.8747   17.0765   27.4608 N   0  0  0  0  0  0  0  0  0  0  0  0
   19.3887   15.9672   28.2886 C   0  0  0  0  0  0  0  0  0  0  0  0
   20.1991   14.9581   27.4452 C   0  0  0  0  0  0  0  0  0  0  0  0
   19.4691   14.3919   26.2939 N   0  0  0  0  0  0  0  0  0  0  0  0
   18.8680   15.4953   25.5166 C   0  0  0  0  0  0  0  0  0  0  0  0
   18.0756   16.5381   26.3482 C   0  0  0  0  0  0  0  0  0  0  0  0
   18.4673   13.4208   26.7234 C   0  0  0  0  0  0  0  0  0  0  0  0
    8.8704   18.5385   22.5167 N   0  0  0  0  0  0  0  0  0  0  0  0
    8.3516   17.7316   22.2032 H   0  0  0  0  0  0  0  0  0  0  0  0
    8.8160   19.5197   21.5186 C   0  0  0  0  0  0  0  0  0  0  0  0
    8.6680   20.7893   21.9117 N   0  0  0  0  0  0  0  0  0  0  0  0
    8.6842   21.7302   20.9448 C   0  0  0  0  0  0  0  0  0  0  0  0
    8.8918   21.4586   19.6116 C   0  0  0  0  0  0  0  0  0  0  0  0
    9.0629   20.1308   19.2880 C   0  0  0  0  0  0  0  0  0  0  0  0
    8.9946   19.1752   20.2363 N   0  0  0  0  0  0  0  0  0  0  0  0
    9.3904   19.6313   17.9403 C   0  0  0  0  0  0  0  0  0  0  0  0
    9.5310   20.5152   16.8546 C   0  0  0  0  0  0  0  0  0  0  0  0
    9.8115   20.0434   15.5741 C   0  0  0  0  0  0  0  0  0  0  0  0
    9.9516   18.6805   15.4002 C   0  0  0  0  0  0  0  0  0  0  0  0
    9.8422   17.7856   16.4048 N   0  0  0  0  0  0  0  0  0  0  0  0
    9.5696   18.2820   17.6388 C   0  0  0  0  0  0  0  0  0  0  0  0
  1  2  1  0  0  0
  2  3  1  0  0  0
  2  7  2  0  0  0
  3  4  2  0  0  0
  4  5  1  0  0  0
  5  6  2  0  0  0
  5  8  1  0  0  0
  6  7  1  0  0  0
  7 26  1  0  0  0
 26 28  1  0  0  0
 26 27  1  0  0  0
 28 29  1  0  0  0
 28 33  2  0  0  0
 29 30  2  0  0  0
 30 31  1  0  0  0
 31 32  2  0  0  0
 32 33  1  0  0  0
 32 34  1  0  0  0
 34 35  1  0  0  0
 34 39  2  0  0  0
 35 36  2  0  0  0
 36 37  1  0  0  0
 37 38  2  0  0  0
 38 39  1  0  0  0
  8  9  1  0  0  0
  8 11  1  0  0  0
  9 10  2  0  0  0
  9 12  1  0  0  0
 12 13  1  0  0  0
 12 17  2  0  0  0
 13 14  2  0  0  0
 14 15  1  0  0  0
 15 16  2  0  0  0
 15 18  1  0  0  0
 16 17  1  0  0  0
 18 19  1  0  0  0
 19 20  1  0  0  0
 19 24  1  0  0  0
 20 21  1  0  0  0
 21 22  1  0  0  0
 22 23  1  0  0  0
 22 25  1  0  0  0
 23 24  1  0  0  0
M  END
> <minimizedAffinity>
-9.42456

$$$$



 39 43  0  0  0  0  0  0  0  0999 V2000
    7.9066   20.0753   19.7388 C   0  0  0  0  0  0  0  0  0  0  0  0
    8.9803   19.0243   19.6439 C   0  0  0  0  0  0  0  0  0  0  0  0
    9.1696   18.3905   18.4054 C   0  0  0  0  0  0  0  0  0  0  0  0
   10.1698   17.4322   18.2249 C   0  0  0  0  0  0  0  0  0  0  0  0
   11.0229   17.1066   19.2728 C   0  0  0  0  0  0  0  0  0  0  0  0
   10.8182   17.7161   20.5100 C   0  0  0  0  0  0  0  0  0  0  0  0
    9.7667   18.6298   20.7444 C   0  0  0  0  0  0  0  0  0  0  0  0
   12.0952   16.1903   19.1574 N   0  0  0  0  0  0  0  0  0  0  0  0
   12.4875   15.5386   18.0056 C   0  0  0  0  0  0  0  0  0  0  0  0
   11.9298   15.5861   16.9117 O   0  0  0  0  0  0  0  0  0  0  0  0
   12.5366   15.9144   20.0267 H   0  0  0  0  0  0  0  0  0  0  0  0
   13.6637   14.6327   18.1415 C   0  0  0  0  0  0  0  0  0  0  0  0
   14.3349   14.2586   16.9725 C   0  0  0  0  0  0  0  0  0  0  0  0
   15.4768   13.4648   17.0433 C   0  0  0  0  0  0  0  0  0  0  0  0
   15.9833   13.0580   18.2876 C   0  0  0  0  0  0  0  0  0  0  0  0
   15.3017   13.4303   19.4562 C   0  0  0  0  0  0  0  0  0  0  0  0
   14.1478   14.2175   19.3886 C   0  0  0  0  0  0  0  0  0  0  0  0
   17.3098   12.3227   18.3503 C   0  0  0  0  0  0  0  0  0  0  0  0
   18.2058   12.7243   17.2582 N   0  0  0  0  0  0  0  0  0  0  0  0
   19.6135   12.8312   17.6909 C   0  0  0  0  0  0  0  0  0  0  0  0
   20.5294   13.2889   16.5342 C   0  0  0  0  0  0  0  0  0  0  0  0
   20.4673   12.4409   15.3275 N   0  0  0  0  0  0  0  0  0  0  0  0
   19.0523   12.2487   14.9479 C   0  0  0  0  0  0  0  0  0  0  0  0
   18.1082   11.8192   16.1016 C   0  0  0  0  0  0  0  0  0  0  0  0
   21.1524   11.1686   15.5344 C   0  0  0  0  0  0  0  0  0  0  0  0
    9.5060   19.0941   22.0487 N   0  0  0  0  0  0  0  0  0  0  0  0
    8.7740   18.6396   22.5742 H   0  0  0  0  0  0  0  0  0  0  0  0
   10.4029   19.6823   22.9497 C   0  0  0  0  0  0  0  0  0  0  0  0
   10.4087   21.0172   23.0285 N   0  0  0  0  0  0  0  0  0  0  0  0
   11.2291   21.5676   23.9474 C   0  0  0  0  0  0  0  0  0  0  0  0
   12.0033   20.8387   24.8213 C   0  0  0  0  0  0  0  0  0  0  0  0
   11.9233   19.4694   24.6969 C   0  0  0  0  0  0  0  0  0  0  0  0
   11.1496   18.9068   23.7472 N   0  0  0  0  0  0  0  0  0  0  0  0
   12.5926   18.5056   25.5892 C   0  0  0  0  0  0  0  0  0  0  0  0
   11.8502   17.6974   26.4697 C   0  0  0  0  0  0  0  0  0  0  0  0
   12.4819   16.8066   27.3350 C   0  0  0  0  0  0  0  0  0  0  0  0
   13.8608   16.7363   27.3017 C   0  0  0  0  0  0  0  0  0  0  0  0
   14.6251   17.4749   26.4698 N   0  0  0  0  0  0  0  0  0  0  0  0
   13.9748   18.3309   25.6402 C   0  0  0  0  0  0  0  0  0  0  0  0
  1  2  1  0  0  0
  2  3  1  0  0  0
  2  7  2  0  0  0
  3  4  2  0  0  0
  4  5  1  0  0  0
  5  6  2  0  0  0
  5  8  1  0  0  0
  6  7  1  0  0  0
  7 26  1  0  0  0
 26 28  1  0  0  0
 26 27  1  0  0  0
 28 29  1  0  0  0
 28 33  2  0  0  0
 29 30  2  0  0  0
 30 31  1  0  0  0
 31 32  2  0  0  0
 32 33  1  0  0  0
 32 34  1  0  0  0
 34 35  1  0  0  0
 34 39  2  0  0  0
 35 36  2  0  0  0
 36 37  1  0  0  0
 37 38  2  0  0  0
 38 39  1  0  0  0
  8  9  1  0  0  0
  8 11  1  0  0  0
  9 10  2  0  0  0
  9 12  1  0  0  0
 12 13  1  0  0  0
 12 17  2  0  0  0
 13 14  2  0  0  0
 14 15  1  0  0  0
 15 16  2  0  0  0
 15 18  1  0  0  0
 16 17  1  0  0  0
 18 19  1  0  0  0
 19 20  1  0  0  0
 19 24  1  0  0  0
 20 21  1  0  0  0
 21 22  1  0  0  0
 22 23  1  0  0  0
 22 25  1  0  0  0
 23 24  1  0  0  0
M  END
> <minimizedAffinity>
-9.27906

$$$$



 39 43  0  0  0  0  0  0  0  0999 V2000
   16.8874   20.2421   29.3883 C   0  0  0  0  0  0  0  0  0  0  0  0
   15.9367   20.0682   28.2341 C   0  0  0  0  0  0  0  0  0  0  0  0
   15.7126   18.7659   27.7599 C   0  0  0  0  0  0  0  0  0  0  0  0
   14.8164   18.5161   26.7179 C   0  0  0  0  0  0  0  0  0  0  0  0
   14.1018   19.5617   26.1451 C   0  0  0  0  0  0  0  0  0  0  0  0
   14.3438   20.8581   26.5975 C   0  0  0  0  0  0  0  0  0  0  0  0
   15.3006   21.1507   27.5947 C   0  0  0  0  0  0  0  0  0  0  0  0
   13.1352   19.3875   25.1262 N   0  0  0  0  0  0  0  0  0  0  0  0
   11.8643   18.8744   25.2901 C   0  0  0  0  0  0  0  0  0  0  0  0
   11.3880   18.4163   26.3260 O   0  0  0  0  0  0  0  0  0  0  0  0
   13.4550   19.5564   24.1796 H   0  0  0  0  0  0  0  0  0  0  0  0
   11.0272   18.8095   24.0582 C   0  0  0  0  0  0  0  0  0  0  0  0
   11.6838   18.6481   22.8335 C   0  0  0  0  0  0  0  0  0  0  0  0
   10.9506   18.5189   21.6567 C   0  0  0  0  0  0  0  0  0  0  0  0
    9.5474   18.5183   21.6903 C   0  0  0  0  0  0  0  0  0  0  0  0
    8.8945   18.6878   22.9207 C   0  0  0  0  0  0  0  0  0  0  0  0
    9.6274   18.8298   24.1033 C   0  0  0  0  0  0  0  0  0  0  0  0
    8.7696   18.2253   20.4202 C   0  0  0  0  0  0  0  0  0  0  0  0
    9.0698   19.1988   19.3623 N   0  0  0  0  0  0  0  0  0  0  0  0
    8.5774   18.7670   18.0390 C   0  0  0  0  0  0  0  0  0  0  0  0
    8.9363   19.7901   16.9386 C   0  0  0  0  0  0  0  0  0  0  0  0
    8.4608   21.1636   17.1965 N   0  0  0  0  0  0  0  0  0  0  0  0
    8.8660   21.5641   18.5597 C   0  0  0  0  0  0  0  0  0  0  0  0
    8.5433   20.5368   19.6767 C   0  0  0  0  0  0  0  0  0  0  0  0
    7.0179   21.2729   17.0040 C   0  0  0  0  0  0  0  0  0  0  0  0
   15.6205   22.4879   27.9022 N   0  0  0  0  0  0  0  0  0  0  0  0
   16.5486   22.8148   27.6780 H   0  0  0  0  0  0  0  0  0  0  0  0
   14.7586   23.5909   27.9522 C   0  0  0  0  0  0  0  0  0  0  0  0
   14.1527   23.8456   29.1167 N   0  0  0  0  0  0  0  0  0  0  0  0
   13.3779   24.9490   29.1694 C   0  0  0  0  0  0  0  0  0  0  0  0
   13.2250   25.8314   28.1244 C   0  0  0  0  0  0  0  0  0  0  0  0
   13.9015   25.5156   26.9669 C   0  0  0  0  0  0  0  0  0  0  0  0
   14.6354   24.3880   26.8825 N   0  0  0  0  0  0  0  0  0  0  0  0
   13.9515   26.3681   25.7654 C   0  0  0  0  0  0  0  0  0  0  0  0
   12.7898   26.9855   25.2664 C   0  0  0  0  0  0  0  0  0  0  0  0
   12.8286   27.7678   24.1142 C   0  0  0  0  0  0  0  0  0  0  0  0
   14.0432   27.9237   23.4756 C   0  0  0  0  0  0  0  0  0  0  0  0
   15.1928   27.3687   23.9142 N   0  0  0  0  0  0  0  0  0  0  0  0
   15.1167   26.6141   25.0405 C   0  0  0  0  0  0  0  0  0  0  0  0
  1  2  1  0  0  0
  2  3  1  0  0  0
  2  7  2  0  0  0
  3  4  2  0  0  0
  4  5  1  0  0  0
  5  6  2  0  0  0
  5  8  1  0  0  0
  6  7  1  0  0  0
  7 26  1  0  0  0
 26 28  1  0  0  0
 26 27  1  0  0  0
 28 29  1  0  0  0
 28 33  2  0  0  0
 29 30  2  0  0  0
 30 31  1  0  0  0
 31 32  2  0  0  0
 32 33  1  0  0  0
 32 34  1  0  0  0
 34 35  1  0  0  0
 34 39  2  0  0  0
 35 36  2  0  0  0
 36 37  1  0  0  0
 37 38  2  0  0  0
 38 39  1  0  0  0
  8  9  1  0  0  0
  8 11  1  0  0  0
  9 10  2  0  0  0
  9 12  1  0  0  0
 12 13  1  0  0  0
 12 17  2  0  0  0
 13 14  2  0  0  0
 14 15  1  0  0  0
 15 16  2  0  0  0
 15 18  1  0  0  0
 16 17  1  0  0  0
 18 19  1  0  0  0
 19 20  1  0  0  0
 19 24  1  0  0  0
 20 21  1  0  0  0
 21 22  1  0  0  0
 22 23  1  0  0  0
 22 25  1  0  0  0
 23 24  1  0  0  0
M  END
> <minimizedAffinity>
-9.25079

$$$$
