
 OpenBabel12052208463D

 66 70  0  0  0  0  0  0  0  0999 V2000
    1.0344   -0.0348    0.2728 C   0  0  0  0  0  0  0  0  0  0  0  0
    2.5369   -0.0650    0.1894 C   0  0  0  0  0  0  0  0  0  0  0  0
    3.2265    1.1344   -0.0310 C   0  0  0  0  0  0  0  0  0  0  0  0
    4.6153    1.1386   -0.1376 C   0  0  0  0  0  0  0  0  0  0  0  0
    5.3406   -0.0548   -0.0282 C   0  0  0  0  0  0  0  0  0  0  0  0
    4.6701   -1.2565    0.2119 C   0  0  0  0  0  0  0  0  0  0  0  0
    3.2702   -1.2629    0.3137 C   0  0  0  0  0  0  0  0  0  0  0  0
    2.6047   -2.5150    0.5273 C   0  0  0  0  0  0  0  0  0  0  0  0
    2.0194   -3.5532    0.6718 C   0  0  0  0  0  0  0  0  0  0  0  0
    1.2821   -4.7593    0.8019 C   0  0  0  0  0  0  0  0  0  0  0  0
   -0.0788   -4.9379    0.6679 C   0  0  0  0  0  0  0  0  0  0  0  0
   -0.4306   -6.2533    0.8476 N   0  0  0  0  0  0  0  0  0  0  0  0
    0.6999   -6.8769    1.0880 C   0  0  0  0  0  0  0  0  0  0  0  0
    1.7840   -6.0084    1.0773 N   0  0  0  0  0  0  0  0  0  0  0  0
    3.1003   -6.3299    1.2881 N   0  0  0  0  0  0  0  0  0  0  0  0
    3.2755   -7.5955    1.5233 C   0  0  0  0  0  0  0  0  0  0  0  0
    2.2218   -8.6363    1.5723 C   0  0  0  0  0  0  0  0  0  0  0  0
    0.9647   -8.2426    1.3530 C   0  0  0  0  0  0  0  0  0  0  0  0
    6.8188    0.0380   -0.1402 C   0  0  0  0  0  0  0  0  0  0  0  0
    7.3444    1.0615    0.2852 O   0  0  0  0  0  0  0  0  0  0  0  0
    7.4584   -1.0030   -0.8020 N   0  0  0  0  0  0  0  0  0  0  0  0
    8.8364   -1.0154   -1.1304 C   0  0  0  0  0  0  0  0  0  0  0  0
    9.7637   -0.1741   -0.5225 C   0  0  0  0  0  0  0  0  0  0  0  0
   11.0822   -0.1226   -0.9695 C   0  0  0  0  0  0  0  0  0  0  0  0
   11.5197   -0.9174   -2.0404 C   0  0  0  0  0  0  0  0  0  0  0  0
   10.6170   -1.8346   -2.6214 C   0  0  0  0  0  0  0  0  0  0  0  0
    9.2815   -1.8757   -2.1407 C   0  0  0  0  0  0  0  0  0  0  0  0
   10.9589   -2.7571   -3.7774 C   0  0  0  0  0  0  0  0  0  0  0  0
   12.2552   -2.7942   -4.1798 F   0  0  0  0  0  0  0  0  0  0  0  0
   10.6598   -4.0570   -3.4727 F   0  0  0  0  0  0  0  0  0  0  0  0
   10.2204   -2.4760   -4.8903 F   0  0  0  0  0  0  0  0  0  0  0  0
   12.9327   -0.6944   -2.5410 C   0  0  0  0  0  0  0  0  0  0  0  0
   12.9785   -0.2501   -3.9346 N   0  0  0  0  0  0  0  0  0  0  0  0
   12.2924    1.0284   -4.1870 C   0  0  0  0  0  0  0  0  0  0  0  0
   12.3622    1.4052   -5.6867 C   0  0  0  0  0  0  0  0  0  0  0  0
   13.7271    1.4762   -6.2462 N   0  0  0  0  0  0  0  0  0  0  0  0
   14.4548    0.2383   -5.8996 C   0  0  0  0  0  0  0  0  0  0  0  0
   14.3719   -0.1754   -4.4117 C   0  0  0  0  0  0  0  0  0  0  0  0
   14.4334    2.6667   -5.7818 C   0  0  0  0  0  0  0  0  0  0  0  0
    0.6501    0.9877    0.1861 H   0  0  0  0  0  0  0  0  0  0  0  0
    0.6923   -0.4307    1.2341 H   0  0  0  0  0  0  0  0  0  0  0  0
    0.5987   -0.6188   -0.5441 H   0  0  0  0  0  0  0  0  0  0  0  0
    2.6894    2.0764   -0.1233 H   0  0  0  0  0  0  0  0  0  0  0  0
    5.1352    2.0800   -0.3088 H   0  0  0  0  0  0  0  0  0  0  0  0
    5.2228   -2.1826    0.3475 H   0  0  0  0  0  0  0  0  0  0  0  0
   -0.8222   -4.1834    0.4430 H   0  0  0  0  0  0  0  0  0  0  0  0
    4.2977   -7.9601    1.7118 H   0  0  0  0  0  0  0  0  0  0  0  0
    2.5023   -9.6616    1.7757 H   0  0  0  0  0  0  0  0  0  0  0  0
    0.1301   -8.9376    1.3703 H   0  0  0  0  0  0  0  0  0  0  0  0
    6.8761   -1.6908   -1.2624 H   0  0  0  0  0  0  0  0  0  0  0  0
    9.4897    0.4749    0.3029 H   0  0  0  0  0  0  0  0  0  0  0  0
   11.7576    0.5840   -0.4897 H   0  0  0  0  0  0  0  0  0  0  0  0
    8.5811   -2.5621   -2.6166 H   0  0  0  0  0  0  0  0  0  0  0  0
   13.4697   -1.6444   -2.4214 H   0  0  0  0  0  0  0  0  0  0  0  0
   13.4553    0.0267   -1.8975 H   0  0  0  0  0  0  0  0  0  0  0  0
   12.7198    1.8314   -3.5734 H   0  0  0  0  0  0  0  0  0  0  0  0
   11.2309    0.9530   -3.9255 H   0  0  0  0  0  0  0  0  0  0  0  0
   11.8334    2.3511   -5.8557 H   0  0  0  0  0  0  0  0  0  0  0  0
   11.8027    0.6518   -6.2587 H   0  0  0  0  0  0  0  0  0  0  0  0
   15.5068    0.3200   -6.1998 H   0  0  0  0  0  0  0  0  0  0  0  0
   14.0387   -0.5774   -6.5062 H   0  0  0  0  0  0  0  0  0  0  0  0
   14.9509    0.5294   -3.8003 H   0  0  0  0  0  0  0  0  0  0  0  0
   14.8485   -1.1579   -4.3072 H   0  0  0  0  0  0  0  0  0  0  0  0
   13.8840    3.5701   -6.0691 H   0  0  0  0  0  0  0  0  0  0  0  0
   15.4163    2.7352   -6.2605 H   0  0  0  0  0  0  0  0  0  0  0  0
   14.5813    2.6901   -4.6976 H   0  0  0  0  0  0  0  0  0  0  0  0
  1  2  1  0  0  0  0
  1 40  1  0  0  0  0
  1 41  1  0  0  0  0
  1 42  1  0  0  0  0
  2  3  1  0  0  0  0
  2  7  2  0  0  0  0
  3  4  2  0  0  0  0
  3 43  1  0  0  0  0
  4  5  1  0  0  0  0
  4 44  1  0  0  0  0
  5  6  2  0  0  0  0
  5 19  1  0  0  0  0
  6  7  1  0  0  0  0
  6 45  1  0  0  0  0
  7  8  1  0  0  0  0
  8  9  3  0  0  0  0
  9 10  1  0  0  0  0
 10 11  2  0  0  0  0
 10 14  1  0  0  0  0
 11 12  1  0  0  0  0
 11 46  1  0  0  0  0
 12 13  2  0  0  0  0
 13 14  1  0  0  0  0
 13 18  1  0  0  0  0
 14 15  1  0  0  0  0
 15 16  2  0  0  0  0
 16 17  1  0  0  0  0
 16 47  1  0  0  0  0
 17 18  2  0  0  0  0
 17 48  1  0  0  0  0
 18 49  1  0  0  0  0
 19 20  2  0  0  0  0
 19 21  1  0  0  0  0
 21 22  1  0  0  0  0
 21 50  1  0  0  0  0
 22 23  1  0  0  0  0
 22 27  2  0  0  0  0
 23 24  2  0  0  0  0
 23 51  1  0  0  0  0
 24 25  1  0  0  0  0
 24 52  1  0  0  0  0
 25 26  2  0  0  0  0
 25 32  1  0  0  0  0
 26 27  1  0  0  0  0
 26 28  1  0  0  0  0
 27 53  1  0  0  0  0
 28 29  1  0  0  0  0
 28 30  1  0  0  0  0
 28 31  1  0  0  0  0
 32 33  1  0  0  0  0
 32 54  1  0  0  0  0
 32 55  1  0  0  0  0
 33 34  1  0  0  0  0
 33 38  1  0  0  0  0
 34 35  1  0  0  0  0
 34 56  1  0  0  0  0
 34 57  1  0  0  0  0
 35 36  1  0  0  0  0
 35 58  1  0  0  0  0
 35 59  1  0  0  0  0
 36 37  1  0  0  0  0
 36 39  1  0  0  0  0
 37 38  1  0  0  0  0
 37 60  1  0  0  0  0
 37 61  1  0  0  0  0
 38 62  1  0  0  0  0
 38 63  1  0  0  0  0
 39 64  1  0  0  0  0
 39 65  1  0  0  0  0
 39 66  1  0  0  0  0
M  END
$$$$
