


 40 44  0  0  0  0  0  0  0  0999 V2000
   12.8759   15.0972   16.9967 C   0  0  0  0  0  0  0  0  0  0  0  0
   13.1705   15.8202   16.0505 O   0  0  0  0  0  0  0  0  0  0  0  0
   11.9177   15.3606   17.9679 N   0  0  0  0  0  0  0  0  0  0  0  0
   11.9130   14.7713   18.7905 H   0  0  0  0  0  0  0  0  0  0  0  0
   15.8955   10.2401   17.9588 C   0  0  0  0  0  0  0  0  0  0  0  0
   15.1533   11.5192   17.6789 C   0  0  0  0  0  0  0  0  0  0  0  0
   14.0693   11.8652   18.4962 C   0  0  0  0  0  0  0  0  0  0  0  0
   13.3456   13.0296   18.2501 C   0  0  0  0  0  0  0  0  0  0  0  0
   13.6896   13.8686   17.1824 C   0  0  0  0  0  0  0  0  0  0  0  0
   14.7803   13.5488   16.3703 C   0  0  0  0  0  0  0  0  0  0  0  0
   15.5068   12.3727   16.6137 C   0  0  0  0  0  0  0  0  0  0  0  0
   16.6011   12.0514   15.7445 C   0  0  0  0  0  0  0  0  0  0  0  0
   17.4932   11.7473   15.0009 C   0  0  0  0  0  0  0  0  0  0  0  0
   18.5170   11.3325   14.1092 C   0  0  0  0  0  0  0  0  0  0  0  0
   18.3921   10.5409   12.9868 C   0  0  0  0  0  0  0  0  0  0  0  0
   19.6024   10.3652   12.3617 N   0  0  0  0  0  0  0  0  0  0  0  0
   20.4613   11.0412   13.0896 C   0  0  0  0  0  0  0  0  0  0  0  0
   19.8517   11.6515   14.1784 N   0  0  0  0  0  0  0  0  0  0  0  0
   20.4555   12.4301   15.1322 N   0  0  0  0  0  0  0  0  0  0  0  0
   21.7331   12.5610   14.9368 C   0  0  0  0  0  0  0  0  0  0  0  0
   22.5201   11.9684   13.8298 C   0  0  0  0  0  0  0  0  0  0  0  0
   21.8575   11.2253   12.9398 C   0  0  0  0  0  0  0  0  0  0  0  0
   11.1533   16.5514   18.0353 C   0  0  0  0  0  0  0  0  0  0  0  0
   10.7711   17.1345   19.2399 C   0  0  0  0  0  0  0  0  0  0  0  0
    9.9068   18.2269   19.2623 C   0  0  0  0  0  0  0  0  0  0  0  0
    9.3979   18.7773   18.0757 C   0  0  0  0  0  0  0  0  0  0  0  0
    9.8328   18.2517   16.8395 C   0  0  0  0  0  0  0  0  0  0  0  0
   10.7225   17.1450   16.8433 C   0  0  0  0  0  0  0  0  0  0  0  0
    9.3697   18.7552   15.4844 C   0  0  0  0  0  0  0  0  0  0  0  0
    8.2893   19.5773   15.4635 F   0  0  0  0  0  0  0  0  0  0  0  0
   10.3558   19.4733   14.8647 F   0  0  0  0  0  0  0  0  0  0  0  0
    9.0876   17.7303   14.6282 F   0  0  0  0  0  0  0  0  0  0  0  0
    8.3618   19.8757   18.2061 C   0  0  0  0  0  0  0  0  0  0  0  0
    8.2562   20.3986   19.5689 N   0  0  0  0  0  0  0  0  0  0  0  0
    8.6076   21.8226   19.7016 C   0  0  0  0  0  0  0  0  0  0  0  0
    8.4996   22.2823   21.1757 C   0  0  0  0  0  0  0  0  0  0  0  0
    7.1819   22.0544   21.8023 N   0  0  0  0  0  0  0  0  0  0  0  0
    6.7767   20.6521   21.5753 C   0  0  0  0  0  0  0  0  0  0  0  0
    6.9070   20.1609   20.1146 C   0  0  0  0  0  0  0  0  0  0  0  0
    6.1826   22.9938   21.3014 C   0  0  0  0  0  0  0  0  0  0  0  0
  5  6  1  0  0  0
  6  7  1  0  0  0
  6 11  2  0  0  0
  7  8  2  0  0  0
  8  9  1  0  0  0
  9 10  2  0  0  0
  9  1  1  0  0  0
 10 11  1  0  0  0
 11 12  1  0  0  0
 12 13  3  0  0  0
 13 14  1  0  0  0
 14 15  2  0  0  0
 14 18  1  0  0  0
 15 16  1  0  0  0
 16 17  2  0  0  0
 17 18  1  0  0  0
 17 22  1  0  0  0
 18 19  1  0  0  0
 19 20  2  0  0  0
 20 21  1  0  0  0
 21 22  2  0  0  0
  1  2  2  0  0  0
  1  3  1  0  0  0
  3 23  1  0  0  0
  3  4  1  0  0  0
 23 24  1  0  0  0
 23 28  2  0  0  0
 24 25  2  0  0  0
 25 26  1  0  0  0
 26 27  2  0  0  0
 26 33  1  0  0  0
 27 28  1  0  0  0
 27 29  1  0  0  0
 29 30  1  0  0  0
 29 31  1  0  0  0
 29 32  1  0  0  0
 33 34  1  0  0  0
 34 35  1  0  0  0
 34 39  1  0  0  0
 35 36  1  0  0  0
 36 37  1  0  0  0
 37 38  1  0  0  0
 37 40  1  0  0  0
 38 39  1  0  0  0
M  END
> <minimizedAffinity>
-13.09950

$$$$



 40 44  0  0  0  0  0  0  0  0999 V2000
   12.7539   15.0906   17.1644 C   0  0  0  0  0  0  0  0  0  0  0  0
   13.1159   15.9067   16.3231 O   0  0  0  0  0  0  0  0  0  0  0  0
   11.7298   15.2586   18.0883 N   0  0  0  0  0  0  0  0  0  0  0  0
   11.6659   14.5858   18.8416 H   0  0  0  0  0  0  0  0  0  0  0  0
   15.7059   10.1433   17.8317 C   0  0  0  0  0  0  0  0  0  0  0  0
   14.9815   11.4470   17.6294 C   0  0  0  0  0  0  0  0  0  0  0  0
   13.9023   11.7583   18.4667 C   0  0  0  0  0  0  0  0  0  0  0  0
   13.1947   12.9452   18.2913 C   0  0  0  0  0  0  0  0  0  0  0  0
   13.5505   13.8419   17.2756 C   0  0  0  0  0  0  0  0  0  0  0  0
   14.6368   13.5564   16.4451 C   0  0  0  0  0  0  0  0  0  0  0  0
   15.3470   12.3579   16.6171 C   0  0  0  0  0  0  0  0  0  0  0  0
   16.4370   12.0743   15.7295 C   0  0  0  0  0  0  0  0  0  0  0  0
   17.3336   11.7944   14.9818 C   0  0  0  0  0  0  0  0  0  0  0  0
   18.3760   11.4015   14.1019 C   0  0  0  0  0  0  0  0  0  0  0  0
   18.2738   10.6455   12.9531 C   0  0  0  0  0  0  0  0  0  0  0  0
   19.4976   10.4824   12.3513 N   0  0  0  0  0  0  0  0  0  0  0  0
   20.3424   11.1310   13.1196 C   0  0  0  0  0  0  0  0  0  0  0  0
   19.7102   11.7109   14.2122 N   0  0  0  0  0  0  0  0  0  0  0  0
   20.2952   12.4564   15.2034 N   0  0  0  0  0  0  0  0  0  0  0  0
   21.5777   12.5862   15.0421 C   0  0  0  0  0  0  0  0  0  0  0  0
   22.3877   12.0235   13.9360 C   0  0  0  0  0  0  0  0  0  0  0  0
   21.7426   11.3119   13.0083 C   0  0  0  0  0  0  0  0  0  0  0  0
   10.9643   16.4425   18.2277 C   0  0  0  0  0  0  0  0  0  0  0  0
   10.4504   17.1403   17.1386 C   0  0  0  0  0  0  0  0  0  0  0  0
    9.8206   18.3709   17.3114 C   0  0  0  0  0  0  0  0  0  0  0  0
    9.6792   18.9443   18.5846 C   0  0  0  0  0  0  0  0  0  0  0  0
   10.1232   18.2187   19.7116 C   0  0  0  0  0  0  0  0  0  0  0  0
   10.7521   16.9617   19.5100 C   0  0  0  0  0  0  0  0  0  0  0  0
   10.0255   18.7154   21.1427 C   0  0  0  0  0  0  0  0  0  0  0  0
   10.2762   20.0318   21.3616 F   0  0  0  0  0  0  0  0  0  0  0  0
    8.7678   18.5204   21.6449 F   0  0  0  0  0  0  0  0  0  0  0  0
   10.8517   18.0238   21.9805 F   0  0  0  0  0  0  0  0  0  0  0  0
    9.1020   20.3437   18.6577 C   0  0  0  0  0  0  0  0  0  0  0  0
    7.8243   20.3951   19.3694 N   0  0  0  0  0  0  0  0  0  0  0  0
    7.8178   21.2865   20.5417 C   0  0  0  0  0  0  0  0  0  0  0  0
    6.4422   21.2555   21.2507 C   0  0  0  0  0  0  0  0  0  0  0  0
    5.2914   21.5912   20.3881 N   0  0  0  0  0  0  0  0  0  0  0  0
    5.3563   20.7746   19.1589 C   0  0  0  0  0  0  0  0  0  0  0  0
    6.7313   20.7648   18.4510 C   0  0  0  0  0  0  0  0  0  0  0  0
    5.2484   23.0193   20.0870 C   0  0  0  0  0  0  0  0  0  0  0  0
  5  6  1  0  0  0
  6  7  1  0  0  0
  6 11  2  0  0  0
  7  8  2  0  0  0
  8  9  1  0  0  0
  9 10  2  0  0  0
  9  1  1  0  0  0
 10 11  1  0  0  0
 11 12  1  0  0  0
 12 13  3  0  0  0
 13 14  1  0  0  0
 14 15  2  0  0  0
 14 18  1  0  0  0
 15 16  1  0  0  0
 16 17  2  0  0  0
 17 18  1  0  0  0
 17 22  1  0  0  0
 18 19  1  0  0  0
 19 20  2  0  0  0
 20 21  1  0  0  0
 21 22  2  0  0  0
  1  2  2  0  0  0
  1  3  1  0  0  0
  3 23  1  0  0  0
  3  4  1  0  0  0
 23 24  1  0  0  0
 23 28  2  0  0  0
 24 25  2  0  0  0
 25 26  1  0  0  0
 26 27  2  0  0  0
 26 33  1  0  0  0
 27 28  1  0  0  0
 27 29  1  0  0  0
 29 30  1  0  0  0
 29 31  1  0  0  0
 29 32  1  0  0  0
 33 34  1  0  0  0
 34 35  1  0  0  0
 34 39  1  0  0  0
 35 36  1  0  0  0
 36 37  1  0  0  0
 37 38  1  0  0  0
 37 40  1  0  0  0
 38 39  1  0  0  0
M  END
> <minimizedAffinity>
-11.27105

$$$$



 40 44  0  0  0  0  0  0  0  0999 V2000
   12.1326   15.9198   16.8155 C   0  0  0  0  0  0  0  0  0  0  0  0
   12.2418   15.9340   15.5938 O   0  0  0  0  0  0  0  0  0  0  0  0
   12.8703   15.1422   17.6998 N   0  0  0  0  0  0  0  0  0  0  0  0
   12.5469   15.0905   18.6573 H   0  0  0  0  0  0  0  0  0  0  0  0
    7.7604   19.1500   18.8366 C   0  0  0  0  0  0  0  0  0  0  0  0
    8.9224   18.3215   18.3584 C   0  0  0  0  0  0  0  0  0  0  0  0
    9.0254   18.0251   16.9930 C   0  0  0  0  0  0  0  0  0  0  0  0
   10.0748   17.2406   16.5201 C   0  0  0  0  0  0  0  0  0  0  0  0
   11.0391   16.7362   17.4020 C   0  0  0  0  0  0  0  0  0  0  0  0
   10.9626   17.0392   18.7635 C   0  0  0  0  0  0  0  0  0  0  0  0
    9.9024   17.8247   19.2421 C   0  0  0  0  0  0  0  0  0  0  0  0
    9.8294   18.0931   20.6489 C   0  0  0  0  0  0  0  0  0  0  0  0
    9.8043   18.2905   21.8328 C   0  0  0  0  0  0  0  0  0  0  0  0
    9.8177   18.4765   23.2401 C   0  0  0  0  0  0  0  0  0  0  0  0
    8.8412   19.0497   24.0273 C   0  0  0  0  0  0  0  0  0  0  0  0
    9.1990   19.0412   25.3533 N   0  0  0  0  0  0  0  0  0  0  0  0
   10.3805   18.4686   25.3821 C   0  0  0  0  0  0  0  0  0  0  0  0
   10.8124   18.1058   24.1126 N   0  0  0  0  0  0  0  0  0  0  0  0
   11.9931   17.4885   23.7883 N   0  0  0  0  0  0  0  0  0  0  0  0
   12.7385   17.2558   24.8266 C   0  0  0  0  0  0  0  0  0  0  0  0
   12.4166   17.5885   26.2343 C   0  0  0  0  0  0  0  0  0  0  0  0
   11.2453   18.1861   26.4674 C   0  0  0  0  0  0  0  0  0  0  0  0
   13.8492   14.1960   17.3081 C   0  0  0  0  0  0  0  0  0  0  0  0
   14.7247   14.4121   16.2479 C   0  0  0  0  0  0  0  0  0  0  0  0
   15.5790   13.4025   15.8098 C   0  0  0  0  0  0  0  0  0  0  0  0
   15.5893   12.1401   16.4231 C   0  0  0  0  0  0  0  0  0  0  0  0
   14.7660   11.9231   17.5495 C   0  0  0  0  0  0  0  0  0  0  0  0
   13.9122   12.9715   17.9832 C   0  0  0  0  0  0  0  0  0  0  0  0
   14.6845   10.6124   18.3108 C   0  0  0  0  0  0  0  0  0  0  0  0
   14.3620    9.5009   17.6008 F   0  0  0  0  0  0  0  0  0  0  0  0
   15.8846   10.3079   18.8932 F   0  0  0  0  0  0  0  0  0  0  0  0
   13.7962   10.6773   19.3450 F   0  0  0  0  0  0  0  0  0  0  0  0
   16.4539   11.0669   15.7925 C   0  0  0  0  0  0  0  0  0  0  0  0
   17.4818   11.6134   14.9057 N   0  0  0  0  0  0  0  0  0  0  0  0
   18.8486   11.5530   15.4509 C   0  0  0  0  0  0  0  0  0  0  0  0
   19.8640   12.1792   14.4647 C   0  0  0  0  0  0  0  0  0  0  0  0
   19.8621   11.5866   13.1120 N   0  0  0  0  0  0  0  0  0  0  0  0
   18.4749   11.5455   12.6060 C   0  0  0  0  0  0  0  0  0  0  0  0
   17.4369   10.9532   13.5878 C   0  0  0  0  0  0  0  0  0  0  0  0
   20.4786   10.2631   13.1078 C   0  0  0  0  0  0  0  0  0  0  0  0
  5  6  1  0  0  0
  6  7  1  0  0  0
  6 11  2  0  0  0
  7  8  2  0  0  0
  8  9  1  0  0  0
  9 10  2  0  0  0
  9  1  1  0  0  0
 10 11  1  0  0  0
 11 12  1  0  0  0
 12 13  3  0  0  0
 13 14  1  0  0  0
 14 15  2  0  0  0
 14 18  1  0  0  0
 15 16  1  0  0  0
 16 17  2  0  0  0
 17 18  1  0  0  0
 17 22  1  0  0  0
 18 19  1  0  0  0
 19 20  2  0  0  0
 20 21  1  0  0  0
 21 22  2  0  0  0
  1  2  2  0  0  0
  1  3  1  0  0  0
  3 23  1  0  0  0
  3  4  1  0  0  0
 23 24  1  0  0  0
 23 28  2  0  0  0
 24 25  2  0  0  0
 25 26  1  0  0  0
 26 27  2  0  0  0
 26 33  1  0  0  0
 27 28  1  0  0  0
 27 29  1  0  0  0
 29 30  1  0  0  0
 29 31  1  0  0  0
 29 32  1  0  0  0
 33 34  1  0  0  0
 34 35  1  0  0  0
 34 39  1  0  0  0
 35 36  1  0  0  0
 36 37  1  0  0  0
 37 38  1  0  0  0
 37 40  1  0  0  0
 38 39  1  0  0  0
M  END
> <minimizedAffinity>
-11.19123

$$$$



 40 44  0  0  0  0  0  0  0  0999 V2000
   11.8103   17.3923   24.3417 C   0  0  0  0  0  0  0  0  0  0  0  0
   12.7657   17.2763   23.5812 O   0  0  0  0  0  0  0  0  0  0  0  0
   11.7620   16.9916   25.6713 N   0  0  0  0  0  0  0  0  0  0  0  0
   10.8554   16.9739   26.1206 H   0  0  0  0  0  0  0  0  0  0  0  0
    6.7610   19.4191   22.3337 C   0  0  0  0  0  0  0  0  0  0  0  0
    8.0859   18.8813   22.8036 C   0  0  0  0  0  0  0  0  0  0  0  0
    8.2409   18.5515   24.1563 C   0  0  0  0  0  0  0  0  0  0  0  0
    9.4610   18.0742   24.6292 C   0  0  0  0  0  0  0  0  0  0  0  0
   10.5491   17.9195   23.7607 C   0  0  0  0  0  0  0  0  0  0  0  0
   10.4055   18.2245   22.4050 C   0  0  0  0  0  0  0  0  0  0  0  0
    9.1783   18.7111   21.9284 C   0  0  0  0  0  0  0  0  0  0  0  0
    9.0681   19.0477   20.5388 C   0  0  0  0  0  0  0  0  0  0  0  0
    9.0168   19.3492   19.3779 C   0  0  0  0  0  0  0  0  0  0  0  0
    9.0084   19.7427   18.0140 C   0  0  0  0  0  0  0  0  0  0  0  0
    8.8813   21.0167   17.5014 C   0  0  0  0  0  0  0  0  0  0  0  0
    8.9343   21.0112   16.1290 N   0  0  0  0  0  0  0  0  0  0  0  0
    9.0932   19.7495   15.8009 C   0  0  0  0  0  0  0  0  0  0  0  0
    9.1404   18.9249   16.9177 N   0  0  0  0  0  0  0  0  0  0  0  0
    9.2989   17.5628   16.9310 N   0  0  0  0  0  0  0  0  0  0  0  0
    9.4021   17.0588   15.7381 C   0  0  0  0  0  0  0  0  0  0  0  0
    9.3644   17.8070   14.4595 C   0  0  0  0  0  0  0  0  0  0  0  0
    9.2104   19.1315   14.5321 C   0  0  0  0  0  0  0  0  0  0  0  0
   12.8188   16.3336   26.3474 C   0  0  0  0  0  0  0  0  0  0  0  0
   12.8791   14.9499   26.4859 C   0  0  0  0  0  0  0  0  0  0  0  0
   13.8612   14.3529   27.2732 C   0  0  0  0  0  0  0  0  0  0  0  0
   14.8221   15.1228   27.9470 C   0  0  0  0  0  0  0  0  0  0  0  0
   14.8279   16.5222   27.7590 C   0  0  0  0  0  0  0  0  0  0  0  0
   13.8230   17.1056   26.9428 C   0  0  0  0  0  0  0  0  0  0  0  0
   15.8122   17.4708   28.4190 C   0  0  0  0  0  0  0  0  0  0  0  0
   16.0554   17.2911   29.7427 F   0  0  0  0  0  0  0  0  0  0  0  0
   17.0450   17.3852   27.8317 F   0  0  0  0  0  0  0  0  0  0  0  0
   15.4404   18.7758   28.2716 F   0  0  0  0  0  0  0  0  0  0  0  0
   15.7645   14.3950   28.8846 C   0  0  0  0  0  0  0  0  0  0  0  0
   16.9817   13.9296   28.2186 N   0  0  0  0  0  0  0  0  0  0  0  0
   17.0185   14.1906   26.7696 C   0  0  0  0  0  0  0  0  0  0  0  0
   18.3218   13.6390   26.1427 C   0  0  0  0  0  0  0  0  0  0  0  0
   19.5674   14.1470   26.7520 N   0  0  0  0  0  0  0  0  0  0  0  0
   19.4869   13.9862   28.2182 C   0  0  0  0  0  0  0  0  0  0  0  0
   18.1787   14.5013   28.8627 C   0  0  0  0  0  0  0  0  0  0  0  0
   19.8201   15.5343   26.3733 C   0  0  0  0  0  0  0  0  0  0  0  0
  5  6  1  0  0  0
  6  7  1  0  0  0
  6 11  2  0  0  0
  7  8  2  0  0  0
  8  9  1  0  0  0
  9 10  2  0  0  0
  9  1  1  0  0  0
 10 11  1  0  0  0
 11 12  1  0  0  0
 12 13  3  0  0  0
 13 14  1  0  0  0
 14 15  2  0  0  0
 14 18  1  0  0  0
 15 16  1  0  0  0
 16 17  2  0  0  0
 17 18  1  0  0  0
 17 22  1  0  0  0
 18 19  1  0  0  0
 19 20  2  0  0  0
 20 21  1  0  0  0
 21 22  2  0  0  0
  1  2  2  0  0  0
  1  3  1  0  0  0
  3 23  1  0  0  0
  3  4  1  0  0  0
 23 24  1  0  0  0
 23 28  2  0  0  0
 24 25  2  0  0  0
 25 26  1  0  0  0
 26 27  2  0  0  0
 26 33  1  0  0  0
 27 28  1  0  0  0
 27 29  1  0  0  0
 29 30  1  0  0  0
 29 31  1  0  0  0
 29 32  1  0  0  0
 33 34  1  0  0  0
 34 35  1  0  0  0
 34 39  1  0  0  0
 35 36  1  0  0  0
 36 37  1  0  0  0
 37 38  1  0  0  0
 37 40  1  0  0  0
 38 39  1  0  0  0
M  END
> <minimizedAffinity>
-11.08524

$$$$



 40 44  0  0  0  0  0  0  0  0999 V2000
   12.0425   17.7870   24.2064 C   0  0  0  0  0  0  0  0  0  0  0  0
   12.8043   17.0172   23.6304 O   0  0  0  0  0  0  0  0  0  0  0  0
   12.1930   18.2851   25.4948 N   0  0  0  0  0  0  0  0  0  0  0  0
   11.3983   18.7550   25.9092 H   0  0  0  0  0  0  0  0  0  0  0  0
    6.9961   19.1583   21.6986 C   0  0  0  0  0  0  0  0  0  0  0  0
    8.3249   18.7877   22.3005 C   0  0  0  0  0  0  0  0  0  0  0  0
    8.4091   18.5902   23.6849 C   0  0  0  0  0  0  0  0  0  0  0  0
    9.6283   18.2702   24.2776 C   0  0  0  0  0  0  0  0  0  0  0  0
   10.7859   18.1435   23.4991 C   0  0  0  0  0  0  0  0  0  0  0  0
   10.7155   18.3171   22.1148 C   0  0  0  0  0  0  0  0  0  0  0  0
    9.4886   18.6454   21.5171 C   0  0  0  0  0  0  0  0  0  0  0  0
    9.4510   18.8505   20.0984 C   0  0  0  0  0  0  0  0  0  0  0  0
    9.3911   19.0572   18.9173 C   0  0  0  0  0  0  0  0  0  0  0  0
    9.2715   19.3425   17.5318 C   0  0  0  0  0  0  0  0  0  0  0  0
    9.1320   20.5758   16.9307 C   0  0  0  0  0  0  0  0  0  0  0  0
    9.0626   20.4609   15.5639 N   0  0  0  0  0  0  0  0  0  0  0  0
    9.1595   19.1729   15.3265 C   0  0  0  0  0  0  0  0  0  0  0  0
    9.2847   18.4373   16.4982 N   0  0  0  0  0  0  0  0  0  0  0  0
    9.4089   17.0761   16.6080 N   0  0  0  0  0  0  0  0  0  0  0  0
    9.3927   16.4769   15.4554 C   0  0  0  0  0  0  0  0  0  0  0  0
    9.2607   17.1233   14.1285 C   0  0  0  0  0  0  0  0  0  0  0  0
    9.1476   18.4538   14.1065 C   0  0  0  0  0  0  0  0  0  0  0  0
   13.2502   17.9336   26.3699 C   0  0  0  0  0  0  0  0  0  0  0  0
   14.3964   18.7092   26.5169 C   0  0  0  0  0  0  0  0  0  0  0  0
   15.4696   18.2598   27.2832 C   0  0  0  0  0  0  0  0  0  0  0  0
   15.4298   17.0170   27.9342 C   0  0  0  0  0  0  0  0  0  0  0  0
   14.2476   16.2482   27.8630 C   0  0  0  0  0  0  0  0  0  0  0  0
   13.1637   16.7332   27.0845 C   0  0  0  0  0  0  0  0  0  0  0  0
   14.0660   14.8936   28.5236 C   0  0  0  0  0  0  0  0  0  0  0  0
   14.3351   14.8093   29.8518 F   0  0  0  0  0  0  0  0  0  0  0  0
   12.7725   14.4621   28.4103 F   0  0  0  0  0  0  0  0  0  0  0  0
   14.8155   13.9263   27.9189 F   0  0  0  0  0  0  0  0  0  0  0  0
   16.6937   16.5557   28.6318 C   0  0  0  0  0  0  0  0  0  0  0  0
   17.4993   15.6520   27.8097 N   0  0  0  0  0  0  0  0  0  0  0  0
   18.5727   16.3161   27.0509 C   0  0  0  0  0  0  0  0  0  0  0  0
   19.3512   15.2943   26.1872 C   0  0  0  0  0  0  0  0  0  0  0  0
   19.9267   14.1591   26.9363 N   0  0  0  0  0  0  0  0  0  0  0  0
   18.8758   13.5583   27.7830 C   0  0  0  0  0  0  0  0  0  0  0  0
   18.0630   14.5645   28.6308 C   0  0  0  0  0  0  0  0  0  0  0  0
   21.0854   14.5710   27.7233 C   0  0  0  0  0  0  0  0  0  0  0  0
  5  6  1  0  0  0
  6  7  1  0  0  0
  6 11  2  0  0  0
  7  8  2  0  0  0
  8  9  1  0  0  0
  9 10  2  0  0  0
  9  1  1  0  0  0
 10 11  1  0  0  0
 11 12  1  0  0  0
 12 13  3  0  0  0
 13 14  1  0  0  0
 14 15  2  0  0  0
 14 18  1  0  0  0
 15 16  1  0  0  0
 16 17  2  0  0  0
 17 18  1  0  0  0
 17 22  1  0  0  0
 18 19  1  0  0  0
 19 20  2  0  0  0
 20 21  1  0  0  0
 21 22  2  0  0  0
  1  2  2  0  0  0
  1  3  1  0  0  0
  3 23  1  0  0  0
  3  4  1  0  0  0
 23 24  1  0  0  0
 23 28  2  0  0  0
 24 25  2  0  0  0
 25 26  1  0  0  0
 26 27  2  0  0  0
 26 33  1  0  0  0
 27 28  1  0  0  0
 27 29  1  0  0  0
 29 30  1  0  0  0
 29 31  1  0  0  0
 29 32  1  0  0  0
 33 34  1  0  0  0
 34 35  1  0  0  0
 34 39  1  0  0  0
 35 36  1  0  0  0
 36 37  1  0  0  0
 37 38  1  0  0  0
 37 40  1  0  0  0
 38 39  1  0  0  0
M  END
> <minimizedAffinity>
-11.07074

$$$$



 40 44  0  0  0  0  0  0  0  0999 V2000
   13.1054   17.4253   25.3523 C   0  0  0  0  0  0  0  0  0  0  0  0
   14.0661   17.4044   24.5899 O   0  0  0  0  0  0  0  0  0  0  0  0
   13.1075   17.0527   26.6910 N   0  0  0  0  0  0  0  0  0  0  0  0
   12.2103   16.9393   27.1451 H   0  0  0  0  0  0  0  0  0  0  0  0
    7.8610   18.8560   23.3312 C   0  0  0  0  0  0  0  0  0  0  0  0
    9.2339   18.4632   23.8070 C   0  0  0  0  0  0  0  0  0  0  0  0
    9.4855   18.4187   25.1845 C   0  0  0  0  0  0  0  0  0  0  0  0
   10.7515   18.0826   25.6583 C   0  0  0  0  0  0  0  0  0  0  0  0
   11.7897   17.7870   24.7656 C   0  0  0  0  0  0  0  0  0  0  0  0
   11.5503   17.8070   23.3895 C   0  0  0  0  0  0  0  0  0  0  0  0
   10.2766   18.1511   22.9106 C   0  0  0  0  0  0  0  0  0  0  0  0
   10.0671   18.1962   21.4927 C   0  0  0  0  0  0  0  0  0  0  0  0
    9.8479   18.2234   20.3127 C   0  0  0  0  0  0  0  0  0  0  0  0
    9.5308   18.2297   18.9290 C   0  0  0  0  0  0  0  0  0  0  0  0
    9.3575   17.1448   18.0955 C   0  0  0  0  0  0  0  0  0  0  0  0
    9.0410   17.5404   16.8189 N   0  0  0  0  0  0  0  0  0  0  0  0
    9.0185   18.8526   16.8663 C   0  0  0  0  0  0  0  0  0  0  0  0
    9.3169   19.3312   18.1358 N   0  0  0  0  0  0  0  0  0  0  0  0
    9.3766   20.6434   18.5294 N   0  0  0  0  0  0  0  0  0  0  0  0
    9.1233   21.4695   17.5593 C   0  0  0  0  0  0  0  0  0  0  0  0
    8.7963   21.1103   16.1594 C   0  0  0  0  0  0  0  0  0  0  0  0
    8.7547   19.8102   15.8569 C   0  0  0  0  0  0  0  0  0  0  0  0
   14.2358   16.5393   27.3767 C   0  0  0  0  0  0  0  0  0  0  0  0
   15.0036   17.3084   28.2463 C   0  0  0  0  0  0  0  0  0  0  0  0
   16.1819   16.8056   28.7939 C   0  0  0  0  0  0  0  0  0  0  0  0
   16.6304   15.5103   28.4924 C   0  0  0  0  0  0  0  0  0  0  0  0
   15.8282   14.6846   27.6749 C   0  0  0  0  0  0  0  0  0  0  0  0
   14.6262   15.2166   27.1378 C   0  0  0  0  0  0  0  0  0  0  0  0
   16.1883   13.2647   27.2767 C   0  0  0  0  0  0  0  0  0  0  0  0
   16.6228   12.4352   28.2599 F   0  0  0  0  0  0  0  0  0  0  0  0
   15.1098   12.6179   26.7377 F   0  0  0  0  0  0  0  0  0  0  0  0
   17.1423   13.2347   26.3010 F   0  0  0  0  0  0  0  0  0  0  0  0
   17.9881   15.1016   29.0276 C   0  0  0  0  0  0  0  0  0  0  0  0
   19.0873   15.4826   28.1397 N   0  0  0  0  0  0  0  0  0  0  0  0
   18.6651   16.1983   26.9238 C   0  0  0  0  0  0  0  0  0  0  0  0
   19.8836   16.5334   26.0299 C   0  0  0  0  0  0  0  0  0  0  0  0
   20.9481   17.3100   26.6968 N   0  0  0  0  0  0  0  0  0  0  0  0
   21.2971   16.6521   27.9725 C   0  0  0  0  0  0  0  0  0  0  0  0
   20.0927   16.2787   28.8679 C   0  0  0  0  0  0  0  0  0  0  0  0
   20.5494   18.7003   26.8967 C   0  0  0  0  0  0  0  0  0  0  0  0
  5  6  1  0  0  0
  6  7  1  0  0  0
  6 11  2  0  0  0
  7  8  2  0  0  0
  8  9  1  0  0  0
  9 10  2  0  0  0
  9  1  1  0  0  0
 10 11  1  0  0  0
 11 12  1  0  0  0
 12 13  3  0  0  0
 13 14  1  0  0  0
 14 15  2  0  0  0
 14 18  1  0  0  0
 15 16  1  0  0  0
 16 17  2  0  0  0
 17 18  1  0  0  0
 17 22  1  0  0  0
 18 19  1  0  0  0
 19 20  2  0  0  0
 20 21  1  0  0  0
 21 22  2  0  0  0
  1  2  2  0  0  0
  1  3  1  0  0  0
  3 23  1  0  0  0
  3  4  1  0  0  0
 23 24  1  0  0  0
 23 28  2  0  0  0
 24 25  2  0  0  0
 25 26  1  0  0  0
 26 27  2  0  0  0
 26 33  1  0  0  0
 27 28  1  0  0  0
 27 29  1  0  0  0
 29 30  1  0  0  0
 29 31  1  0  0  0
 29 32  1  0  0  0
 33 34  1  0  0  0
 34 35  1  0  0  0
 34 39  1  0  0  0
 35 36  1  0  0  0
 36 37  1  0  0  0
 37 38  1  0  0  0
 37 40  1  0  0  0
 38 39  1  0  0  0
M  END
> <minimizedAffinity>
-10.57257

$$$$



 40 44  0  0  0  0  0  0  0  0999 V2000
    9.4803   18.1532   20.2163 C   0  0  0  0  0  0  0  0  0  0  0  0
    8.3343   17.9506   20.6042 O   0  0  0  0  0  0  0  0  0  0  0  0
   10.4710   18.8474   20.8999 N   0  0  0  0  0  0  0  0  0  0  0  0
   11.3038   19.1010   20.3839 H   0  0  0  0  0  0  0  0  0  0  0  0
   10.5499   16.5353   14.7506 C   0  0  0  0  0  0  0  0  0  0  0  0
   10.3026   16.9133   16.1864 C   0  0  0  0  0  0  0  0  0  0  0  0
    9.2397   17.7754   16.4856 C   0  0  0  0  0  0  0  0  0  0  0  0
    8.9978   18.1646   17.8010 C   0  0  0  0  0  0  0  0  0  0  0  0
    9.8139   17.7017   18.8411 C   0  0  0  0  0  0  0  0  0  0  0  0
   10.8654   16.8254   18.5626 C   0  0  0  0  0  0  0  0  0  0  0  0
   11.1138   16.4371   17.2368 C   0  0  0  0  0  0  0  0  0  0  0  0
   12.2200   15.5630   16.9749 C   0  0  0  0  0  0  0  0  0  0  0  0
   13.1248   14.7985   16.7792 C   0  0  0  0  0  0  0  0  0  0  0  0
   14.1681   13.8545   16.5908 C   0  0  0  0  0  0  0  0  0  0  0  0
   15.2594   13.9551   15.7537 C   0  0  0  0  0  0  0  0  0  0  0  0
   16.0680   12.8492   15.8512 N   0  0  0  0  0  0  0  0  0  0  0  0
   15.4823   12.0780   16.7383 C   0  0  0  0  0  0  0  0  0  0  0  0
   14.3090   12.6424   17.2224 N   0  0  0  0  0  0  0  0  0  0  0  0
   13.4596   12.1057   18.1557 N   0  0  0  0  0  0  0  0  0  0  0  0
   13.8535   10.9434   18.5820 C   0  0  0  0  0  0  0  0  0  0  0  0
   15.0727   10.2162   18.1568 C   0  0  0  0  0  0  0  0  0  0  0  0
   15.8496   10.8081   17.2461 C   0  0  0  0  0  0  0  0  0  0  0  0
   10.2857   19.4767   22.1555 C   0  0  0  0  0  0  0  0  0  0  0  0
    9.8272   20.7847   22.2826 C   0  0  0  0  0  0  0  0  0  0  0  0
    9.7887   21.4104   23.5268 C   0  0  0  0  0  0  0  0  0  0  0  0
   10.2047   20.7444   24.6901 C   0  0  0  0  0  0  0  0  0  0  0  0
   10.5999   19.3921   24.5966 C   0  0  0  0  0  0  0  0  0  0  0  0
   10.6202   18.7736   23.3186 C   0  0  0  0  0  0  0  0  0  0  0  0
   11.0645   18.5524   25.7728 C   0  0  0  0  0  0  0  0  0  0  0  0
   12.3263   18.7644   26.2271 F   0  0  0  0  0  0  0  0  0  0  0  0
   10.2695   18.7587   26.8671 F   0  0  0  0  0  0  0  0  0  0  0  0
   10.9701   17.2155   25.5143 F   0  0  0  0  0  0  0  0  0  0  0  0
   10.2533   21.5492   25.9734 C   0  0  0  0  0  0  0  0  0  0  0  0
   11.6193   21.8317   26.4157 N   0  0  0  0  0  0  0  0  0  0  0  0
   12.3794   22.7135   25.5136 C   0  0  0  0  0  0  0  0  0  0  0  0
   13.8186   22.9325   26.0398 C   0  0  0  0  0  0  0  0  0  0  0  0
   13.9027   23.4669   27.4139 N   0  0  0  0  0  0  0  0  0  0  0  0
   13.0526   22.6480   28.3021 C   0  0  0  0  0  0  0  0  0  0  0  0
   11.6197   22.3890   27.7811 C   0  0  0  0  0  0  0  0  0  0  0  0
   13.5325   24.8784   27.4616 C   0  0  0  0  0  0  0  0  0  0  0  0
  5  6  1  0  0  0
  6  7  1  0  0  0
  6 11  2  0  0  0
  7  8  2  0  0  0
  8  9  1  0  0  0
  9 10  2  0  0  0
  9  1  1  0  0  0
 10 11  1  0  0  0
 11 12  1  0  0  0
 12 13  3  0  0  0
 13 14  1  0  0  0
 14 15  2  0  0  0
 14 18  1  0  0  0
 15 16  1  0  0  0
 16 17  2  0  0  0
 17 18  1  0  0  0
 17 22  1  0  0  0
 18 19  1  0  0  0
 19 20  2  0  0  0
 20 21  1  0  0  0
 21 22  2  0  0  0
  1  2  2  0  0  0
  1  3  1  0  0  0
  3 23  1  0  0  0
  3  4  1  0  0  0
 23 24  1  0  0  0
 23 28  2  0  0  0
 24 25  2  0  0  0
 25 26  1  0  0  0
 26 27  2  0  0  0
 26 33  1  0  0  0
 27 28  1  0  0  0
 27 29  1  0  0  0
 29 30  1  0  0  0
 29 31  1  0  0  0
 29 32  1  0  0  0
 33 34  1  0  0  0
 34 35  1  0  0  0
 34 39  1  0  0  0
 35 36  1  0  0  0
 36 37  1  0  0  0
 37 38  1  0  0  0
 37 40  1  0  0  0
 38 39  1  0  0  0
M  END
> <minimizedAffinity>
-10.47444

$$$$



 40 44  0  0  0  0  0  0  0  0999 V2000
   10.7258   18.2898   25.2101 C   0  0  0  0  0  0  0  0  0  0  0  0
   10.2847   18.5726   26.3193 O   0  0  0  0  0  0  0  0  0  0  0  0
   11.9992   17.8110   24.9273 N   0  0  0  0  0  0  0  0  0  0  0  0
   12.2895   17.8018   23.9578 H   0  0  0  0  0  0  0  0  0  0  0  0
    7.1161   19.5365   20.8454 C   0  0  0  0  0  0  0  0  0  0  0  0
    8.0778   19.1767   21.9458 C   0  0  0  0  0  0  0  0  0  0  0  0
    7.7588   19.5265   23.2644 C   0  0  0  0  0  0  0  0  0  0  0  0
    8.6376   19.2301   24.3036 C   0  0  0  0  0  0  0  0  0  0  0  0
    9.8517   18.5812   24.0451 C   0  0  0  0  0  0  0  0  0  0  0  0
   10.1760   18.2073   22.7388 C   0  0  0  0  0  0  0  0  0  0  0  0
    9.2939   18.5106   21.6899 C   0  0  0  0  0  0  0  0  0  0  0  0
    9.6666   18.1451   20.3543 C   0  0  0  0  0  0  0  0  0  0  0  0
   10.0023   17.8778   19.2331 C   0  0  0  0  0  0  0  0  0  0  0  0
   10.4225   17.6217   17.9015 C   0  0  0  0  0  0  0  0  0  0  0  0
   11.1670   16.5570   17.4390 C   0  0  0  0  0  0  0  0  0  0  0  0
   11.3653   16.6373   16.0823 N   0  0  0  0  0  0  0  0  0  0  0  0
   10.7494   17.7372   15.7141 C   0  0  0  0  0  0  0  0  0  0  0  0
   10.1569   18.3853   16.7905 N   0  0  0  0  0  0  0  0  0  0  0  0
    9.4374   19.5521   16.7561 N   0  0  0  0  0  0  0  0  0  0  0  0
    9.3477   20.0504   15.5596 C   0  0  0  0  0  0  0  0  0  0  0  0
    9.9286   19.4791   14.3218 C   0  0  0  0  0  0  0  0  0  0  0  0
   10.6129   18.3383   14.4391 C   0  0  0  0  0  0  0  0  0  0  0  0
   13.0144   17.6171   25.8960 C   0  0  0  0  0  0  0  0  0  0  0  0
   14.0544   18.5216   26.0895 C   0  0  0  0  0  0  0  0  0  0  0  0
   15.1049   18.2277   26.9560 C   0  0  0  0  0  0  0  0  0  0  0  0
   15.1478   17.0166   27.6641 C   0  0  0  0  0  0  0  0  0  0  0  0
   14.0654   16.1180   27.5432 C   0  0  0  0  0  0  0  0  0  0  0  0
   13.0013   16.4456   26.6618 C   0  0  0  0  0  0  0  0  0  0  0  0
   13.9791   14.7805   28.2558 C   0  0  0  0  0  0  0  0  0  0  0  0
   14.2756   14.7626   29.5808 F   0  0  0  0  0  0  0  0  0  0  0  0
   12.7130   14.2669   28.1834 F   0  0  0  0  0  0  0  0  0  0  0  0
   14.7764   13.8389   27.6722 F   0  0  0  0  0  0  0  0  0  0  0  0
   16.3940   16.7294   28.4773 C   0  0  0  0  0  0  0  0  0  0  0  0
   17.4475   16.0829   27.6938 N   0  0  0  0  0  0  0  0  0  0  0  0
   17.9044   14.7931   28.2385 C   0  0  0  0  0  0  0  0  0  0  0  0
   19.0375   14.1972   27.3685 C   0  0  0  0  0  0  0  0  0  0  0  0
   18.6977   14.0206   25.9422 N   0  0  0  0  0  0  0  0  0  0  0  0
   18.1360   15.2835   25.4209 C   0  0  0  0  0  0  0  0  0  0  0  0
   17.0241   15.9143   26.2912 C   0  0  0  0  0  0  0  0  0  0  0  0
   17.7825   12.9000   25.7460 C   0  0  0  0  0  0  0  0  0  0  0  0
  5  6  1  0  0  0
  6  7  1  0  0  0
  6 11  2  0  0  0
  7  8  2  0  0  0
  8  9  1  0  0  0
  9 10  2  0  0  0
  9  1  1  0  0  0
 10 11  1  0  0  0
 11 12  1  0  0  0
 12 13  3  0  0  0
 13 14  1  0  0  0
 14 15  2  0  0  0
 14 18  1  0  0  0
 15 16  1  0  0  0
 16 17  2  0  0  0
 17 18  1  0  0  0
 17 22  1  0  0  0
 18 19  1  0  0  0
 19 20  2  0  0  0
 20 21  1  0  0  0
 21 22  2  0  0  0
  1  2  2  0  0  0
  1  3  1  0  0  0
  3 23  1  0  0  0
  3  4  1  0  0  0
 23 24  1  0  0  0
 23 28  2  0  0  0
 24 25  2  0  0  0
 25 26  1  0  0  0
 26 27  2  0  0  0
 26 33  1  0  0  0
 27 28  1  0  0  0
 27 29  1  0  0  0
 29 30  1  0  0  0
 29 31  1  0  0  0
 29 32  1  0  0  0
 33 34  1  0  0  0
 34 35  1  0  0  0
 34 39  1  0  0  0
 35 36  1  0  0  0
 36 37  1  0  0  0
 37 38  1  0  0  0
 37 40  1  0  0  0
 38 39  1  0  0  0
M  END
> <minimizedAffinity>
-10.46064

$$$$



 40 44  0  0  0  0  0  0  0  0999 V2000
   11.3149   19.9410   23.2080 C   0  0  0  0  0  0  0  0  0  0  0  0
   12.2117   19.6582   22.4202 O   0  0  0  0  0  0  0  0  0  0  0  0
    9.9493   19.8801   22.9585 N   0  0  0  0  0  0  0  0  0  0  0  0
    9.3325   20.3208   23.6289 H   0  0  0  0  0  0  0  0  0  0  0  0
   12.8834   21.8529   28.4539 C   0  0  0  0  0  0  0  0  0  0  0  0
   12.4647   21.4081   27.0783 C   0  0  0  0  0  0  0  0  0  0  0  0
   12.1768   20.0540   26.8636 C   0  0  0  0  0  0  0  0  0  0  0  0
   11.8100   19.6045   25.5973 C   0  0  0  0  0  0  0  0  0  0  0  0
   11.7259   20.4984   24.5220 C   0  0  0  0  0  0  0  0  0  0  0  0
   11.9898   21.8552   24.7235 C   0  0  0  0  0  0  0  0  0  0  0  0
   12.3653   22.3085   25.9977 C   0  0  0  0  0  0  0  0  0  0  0  0
   12.6628   23.7007   26.1694 C   0  0  0  0  0  0  0  0  0  0  0  0
   12.8931   24.8744   26.2725 C   0  0  0  0  0  0  0  0  0  0  0  0
   13.1489   26.2695   26.3323 C   0  0  0  0  0  0  0  0  0  0  0  0
   12.9471   27.1220   27.3974 C   0  0  0  0  0  0  0  0  0  0  0  0
   13.3272   28.4054   27.0897 N   0  0  0  0  0  0  0  0  0  0  0  0
   13.7588   28.3435   25.8509 C   0  0  0  0  0  0  0  0  0  0  0  0
   13.6679   27.0575   25.3335 N   0  0  0  0  0  0  0  0  0  0  0  0
   14.0333   26.6463   24.0774 N   0  0  0  0  0  0  0  0  0  0  0  0
   14.4979   27.6159   23.3481 C   0  0  0  0  0  0  0  0  0  0  0  0
   14.6488   29.0320   23.7581 C   0  0  0  0  0  0  0  0  0  0  0  0
   14.2730   29.3512   24.9992 C   0  0  0  0  0  0  0  0  0  0  0  0
    9.3789   19.5169   21.7137 C   0  0  0  0  0  0  0  0  0  0  0  0
    9.2074   18.1927   21.3209 C   0  0  0  0  0  0  0  0  0  0  0  0
    8.7695   17.8798   20.0359 C   0  0  0  0  0  0  0  0  0  0  0  0
    8.4830   18.8850   19.0992 C   0  0  0  0  0  0  0  0  0  0  0  0
    8.5750   20.2358   19.4998 C   0  0  0  0  0  0  0  0  0  0  0  0
    9.0132   20.5285   20.8183 C   0  0  0  0  0  0  0  0  0  0  0  0
    8.2876   21.4192   18.5936 C   0  0  0  0  0  0  0  0  0  0  0  0
    7.0874   21.4383   17.9589 F   0  0  0  0  0  0  0  0  0  0  0  0
    8.3204   22.5935   19.2949 F   0  0  0  0  0  0  0  0  0  0  0  0
    9.2365   21.5608   17.6227 F   0  0  0  0  0  0  0  0  0  0  0  0
    8.1432   18.4460   17.6890 C   0  0  0  0  0  0  0  0  0  0  0  0
    9.3299   18.1807   16.8748 N   0  0  0  0  0  0  0  0  0  0  0  0
    9.6036   16.7515   16.6482 C   0  0  0  0  0  0  0  0  0  0  0  0
   10.8898   16.5626   15.8079 C   0  0  0  0  0  0  0  0  0  0  0  0
   10.8898   17.2616   14.5070 N   0  0  0  0  0  0  0  0  0  0  0  0
   10.5079   18.6728   14.7185 C   0  0  0  0  0  0  0  0  0  0  0  0
    9.2434   18.8867   15.5829 C   0  0  0  0  0  0  0  0  0  0  0  0
   10.0106   16.6017   13.5461 C   0  0  0  0  0  0  0  0  0  0  0  0
  5  6  1  0  0  0
  6  7  1  0  0  0
  6 11  2  0  0  0
  7  8  2  0  0  0
  8  9  1  0  0  0
  9 10  2  0  0  0
  9  1  1  0  0  0
 10 11  1  0  0  0
 11 12  1  0  0  0
 12 13  3  0  0  0
 13 14  1  0  0  0
 14 15  2  0  0  0
 14 18  1  0  0  0
 15 16  1  0  0  0
 16 17  2  0  0  0
 17 18  1  0  0  0
 17 22  1  0  0  0
 18 19  1  0  0  0
 19 20  2  0  0  0
 20 21  1  0  0  0
 21 22  2  0  0  0
  1  2  2  0  0  0
  1  3  1  0  0  0
  3 23  1  0  0  0
  3  4  1  0  0  0
 23 24  1  0  0  0
 23 28  2  0  0  0
 24 25  2  0  0  0
 25 26  1  0  0  0
 26 27  2  0  0  0
 26 33  1  0  0  0
 27 28  1  0  0  0
 27 29  1  0  0  0
 29 30  1  0  0  0
 29 31  1  0  0  0
 29 32  1  0  0  0
 33 34  1  0  0  0
 34 35  1  0  0  0
 34 39  1  0  0  0
 35 36  1  0  0  0
 36 37  1  0  0  0
 37 38  1  0  0  0
 37 40  1  0  0  0
 38 39  1  0  0  0
M  END
> <minimizedAffinity>
-10.25135

$$$$
