
 OpenBabel12052209083D

272134  0  0  1  0  0  0  0  0999 V2000
   14.5260   15.1690   17.0560 O   0  0  0  0  0  0  0  0  0  0  0  0
   14.6880   15.0350   17.0940 C   0  0  0  0  0  0  0  0  0  0  0  0
   20.1490   11.0550   14.1070 C   0  0  0  0  0  0  0  0  0  0  0  0
   20.9300   11.0480   13.8510 C   0  0  0  0  0  0  0  0  0  0  0  0
   21.4750   11.1490   13.4380 O   0  0  0  0  0  0  0  0  0  0  0  0
   22.0940   11.2690   13.7580 C   0  0  0  0  0  0  0  0  0  0  0  0
   22.0770   11.2650   13.6580 C   0  0  0  0  0  0  0  0  0  0  0  0
   19.7330   13.2560   18.5180 C   0  0  0  0  0  0  0  0  0  0  0  0
   19.4510   13.3900   19.0630 C   0  0  0  0  0  0  0  0  0  0  0  0
   20.1710   10.5330   14.0650 C   0  0  0  0  0  0  0  0  0  0  0  0
   20.0270   10.3170   13.9910 C   0  0  0  0  0  0  0  0  0  0  0  0
   19.5510   10.5490   13.9460 O   0  0  0  0  0  0  0  0  0  0  0  0
   18.0200   11.3680   14.8660 O   0  0  0  0  0  0  0  0  0  0  0  0
   20.0430   11.0000   14.1370 C   0  0  0  0  0  0  0  0  0  0  0  0
   19.5160   10.8690   14.0070 O   0  0  0  0  0  0  0  0  0  0  0  0
   22.1990   10.8370   13.9350 C   0  0  0  0  0  0  0  0  0  0  0  0
   22.3680   11.3730   13.8010 C   0  0  0  0  0  0  0  0  0  0  0  0
   22.7840   11.5020   13.7020 C   0  0  0  0  0  0  0  0  0  0  0  0
   22.6640   11.4890   13.7260 C   0  0  0  0  0  0  0  0  0  0  0  0
   22.7350   11.5250   13.7230 C   0  0  0  0  0  0  0  0  0  0  0  0
   16.2840   12.1930   18.7610 C   0  0  0  0  0  0  0  0  0  0  0  0
   16.4030   12.3090   18.9410 C   0  0  0  0  0  0  0  0  0  0  0  0
   16.2860   10.8020   18.8650 C   0  0  0  0  0  0  0  0  0  0  0  0
   14.7370   15.0020   17.0440 C   0  0  0  0  0  0  0  0  0  0  0  0
   19.5050   12.1140   15.7690 C   0  0  0  0  0  0  0  0  0  0  0  0
   19.7340   12.2400   15.7090 C   0  0  0  0  0  0  0  0  0  0  0  0
   17.9380   12.0280   15.8070 C   0  0  0  0  0  0  0  0  0  0  0  0
   19.3290   12.1580   16.7970 C   0  0  0  0  0  0  0  0  0  0  0  0
   20.0730   13.4260   17.5730 C   0  0  0  0  0  0  0  0  0  0  0  0
   19.8900   12.9540   17.6720 C   0  0  0  0  0  0  0  0  0  0  0  0
   20.1220   12.6730   17.1450 C   0  0  0  0  0  0  0  0  0  0  0  0
   20.4680   12.7990   16.6080 C   0  0  0  0  0  0  0  0  0  0  0  0
   16.5110   12.8320   15.4250 C   0  0  1  0  0  0  0  0  0  0  0  0
   15.1170   13.2430   17.4500 C   0  0  0  0  0  0  0  0  0  0  0  0
   15.9270   13.0810   15.7810 C   0  0  0  0  0  0  0  0  0  0  0  0
   17.2190   12.0960   17.7760 C   0  0  0  0  0  0  0  0  0  0  0  0
   17.2310   12.0910   17.7650 C   0  0  0  0  0  0  0  0  0  0  0  0
   20.6410   13.1370   16.4660 C   0  0  0  0  0  0  0  0  0  0  0  0
   16.3200   12.9020   19.5700 C   0  0  0  0  0  0  0  0  0  0  0  0
   20.7360   13.7220   15.9760 C   0  0  0  0  0  0  0  0  0  0  0  0
   20.6720   13.2580   16.4110 C   0  0  0  0  0  0  0  0  0  0  0  0
   15.5440   10.2580   18.9380 O   0  0  0  0  0  0  0  0  0  0  0  0
   15.4770   10.4150   18.9930 O   0  0  0  0  0  0  0  0  0  0  0  0
   16.1270   10.3950   18.8410 O   0  0  0  0  0  0  0  0  0  0  0  0
   16.2130   10.6440   18.8850 O   0  0  0  0  0  0  0  0  0  0  0  0
   16.3190   10.6540   18.9280 C   0  0  0  0  0  0  0  0  0  0  0  0
   15.0720   13.1220   19.1460 O   0  0  0  0  0  0  0  0  0  0  0  0
   13.6350   12.0880   20.4920 C   0  0  0  0  0  0  0  0  0  0  0  0
   20.6570   13.1510   16.4360 C   0  0  0  0  0  0  0  0  0  0  0  0
   20.6640   13.1730   16.4220 C   0  0  0  0  0  0  0  0  0  0  0  0
   20.6700   13.0430   16.1250 C   0  0  0  0  0  0  0  0  0  0  0  0
   20.5850   12.8250   16.3120 C   0  0  0  0  0  0  0  0  0  0  0  0
   20.6050   12.8130   16.1460 C   0  0  0  0  0  0  0  0  0  0  0  0
   22.7550   11.7490   14.1450 C   0  0  0  0  0  0  0  0  0  0  0  0
   23.0310   12.2230   13.9810 C   0  0  0  0  0  0  0  0  0  0  0  0
   22.9350   11.7660   13.9940 C   0  0  0  0  0  0  0  0  0  0  0  0
   14.9950   10.7030   19.0300 O   0  0  0  0  0  0  0  0  0  0  0  0
   14.3730   10.9030   19.3290 C   0  0  0  0  0  0  0  0  0  0  0  0
   14.0420   13.6240   18.1030 C   0  0  0  0  0  0  0  0  0  0  0  0
   14.1020   12.2530   19.4350 C   0  0  0  0  0  0  0  0  0  0  0  0
   13.8970   12.3070   19.3740 C   0  0  0  0  0  0  0  0  0  0  0  0
   14.9810   13.2420   17.6340 C   0  0  0  0  0  0  0  0  0  0  0  0
   14.5860   13.5050   18.0290 C   0  0  2  0  0  0  0  0  0  0  0  0
   14.1780   13.4080   18.4780 O   0  0  0  0  0  0  0  0  0  0  0  0
   15.2900   12.6470   18.8480 C   0  0  0  0  0  0  0  0  0  0  0  0
   14.8590   13.0480   18.8320 O   0  0  0  0  0  0  0  0  0  0  0  0
   15.0200   12.8630   18.9760 C   0  0  0  0  0  0  0  0  0  0  0  0
   14.9940   12.8870   18.9780 C   0  0  0  0  0  0  0  0  0  0  0  0
   14.9340   12.8320   19.0180 C   0  0  0  0  0  0  0  0  0  0  0  0
   16.1090   14.1530   20.1920 C   0  0  0  0  0  0  0  0  0  0  0  0
   17.7400   14.3090   20.5440 C   0  0  0  0  0  0  0  0  0  0  0  0
   16.9810   14.0340   20.5070 C   0  0  0  0  0  0  0  0  0  0  0  0
   17.1980   14.2390   20.9290 C   0  0  0  0  0  0  0  0  0  0  0  0
   13.0800   18.6240   23.2040 O   0  0  0  0  0  0  0  0  0  0  0  0
   25.7630   13.5500   13.4310 O   0  0  0  0  0  0  0  0  0  0  0  0
    6.6620   18.5460   24.1100 C   0  0  0  0  0  0  0  0  0  0  0  0
   23.3710   13.1350   13.6750 C   0  0  0  0  0  0  0  0  0  0  0  0
    8.0990   20.8140   17.2920 C   0  0  0  0  0  0  0  0  0  0  0  0
   22.0480   17.4890   18.6470 O   0  0  0  0  0  0  0  0  0  0  0  0
    8.0480   19.3740   24.5830 O   0  0  0  0  0  0  0  0  0  0  0  0
   22.0300   17.5620   18.6470 O   0  0  0  0  0  0  0  0  0  0  0  0
    7.2550   19.1280   24.0940 C   0  0  0  0  0  0  0  0  0  0  0  0
   22.8330   18.9860   18.2290 O   0  0  0  0  0  0  0  0  0  0  0  0
    8.8510   21.2940   18.4030 O   0  0  0  0  0  0  0  0  0  0  0  0
   25.1790   13.3830   13.6520 O   0  0  0  0  0  0  0  0  0  0  0  0
   13.0010   18.7190   23.3030 O   0  0  0  0  0  0  0  0  0  0  0  0
   23.7140   13.1530   13.7420 C   0  0  0  0  0  0  0  0  0  0  0  0
   13.6680   18.0360   23.3750 O   0  0  0  0  0  0  0  0  0  0  0  0
   24.7000   13.7420   14.1560 O   0  0  0  0  0  0  0  0  0  0  0  0
    8.8010   20.5450   17.1310 C   0  0  0  0  0  0  0  0  0  0  0  0
   24.6610   21.6290   20.7210 C   0  0  0  0  0  0  0  0  0  0  0  0
    8.8890   20.4610   17.3250 C   0  0  0  0  0  0  0  0  0  0  0  0
   25.1750   21.1660   20.1770 C   0  0  0  0  0  0  0  0  0  0  0  0
    8.9480   20.4010   17.2980 C   0  0  0  0  0  0  0  0  0  0  0  0
   23.2590   15.7920   17.8840 O   0  0  0  0  0  0  0  0  0  0  0  0
    7.0560   21.8260   16.7940 C   0  0  0  0  0  0  0  0  0  0  0  0
   23.7920   15.7000   16.2330 O   0  0  0  0  0  0  0  0  0  0  0  0
    7.9040   20.8570   17.2550 C   0  0  0  0  0  0  0  0  0  0  0  0
   23.2650   15.5390   18.2670 C   0  0  0  0  0  0  0  0  0  0  0  0
    6.5430   20.6850   17.2030 C   0  0  0  0  0  0  0  0  0  0  0  0
   22.0750   15.7270   19.4870 O   0  0  0  0  0  0  0  0  0  0  0  0
   12.1980   15.6640   17.3810 O   0  0  0  0  0  0  0  0  0  0  0  0
   24.3880   14.1560   16.1530 C   0  0  0  0  0  0  0  0  0  0  0  0
   11.3160   16.4930   17.7560 O   0  0  0  0  0  0  0  0  0  0  0  0
   15.1410   13.5720   14.6850 O   0  0  0  0  0  0  0  0  0  0  0  0
   10.8600   19.2320   23.9470 O   0  0  0  0  0  0  0  0  0  0  0  0
   24.5790   13.5760   16.4000 O   0  0  0  0  0  0  0  0  0  0  0  0
    8.5310   19.4870   22.3770 C   0  0  0  0  0  0  0  0  0  0  0  0
   24.4130   13.9840   16.8750 C   0  0  0  0  0  0  0  0  0  0  0  0
    8.4360   20.5590   17.7480 C   0  0  0  0  0  0  0  0  0  0  0  0
   24.4200   13.9150   16.8980 C   0  0  0  0  0  0  0  0  0  0  0  0
    8.4800   20.5530   17.8110 O   0  0  0  0  0  0  0  0  0  0  0  0
   23.7260   14.0630   14.7420 C   0  0  0  0  0  0  0  0  0  0  0  0
    8.4970   20.5290   17.7650 C   0  0  0  0  0  0  0  0  0  0  0  0
   23.6670   14.2140   14.9110 C   0  0  0  0  0  0  0  0  0  0  0  0
    8.9460   19.5330   17.9770 C   0  0  0  0  0  0  0  0  0  0  0  0
   18.6750   12.3240   16.6440 O   0  0  0  0  0  0  0  0  0  0  0  0
    6.7220   21.0400   17.8010 C   0  0  0  0  0  0  0  0  0  0  0  0
   24.9490   21.5980   23.0030 O   0  0  0  0  0  0  0  0  0  0  0  0
    8.5280   19.4310   22.2370 C   0  0  0  0  0  0  0  0  0  0  0  0
   25.3230   21.5210   22.8680 O   0  0  0  0  0  0  0  0  0  0  0  0
    9.5260   17.9500   19.5480 C   0  0  0  0  0  0  0  0  0  0  0  0
   20.6960   21.4500   21.5780 C   0  0  0  0  0  0  0  0  0  0  0  0
    6.5390   20.8090   17.5220 C   0  0  0  0  0  0  0  0  0  0  0  0
   23.0710   21.4950   20.8470 C   0  0  0  0  0  0  0  0  0  0  0  0
    6.5970   20.6940   17.3110 C   0  0  0  0  0  0  0  0  0  0  0  0
   21.9390   21.7320   21.2800 C   0  0  0  0  0  0  0  0  0  0  0  0
    7.0540   20.9140   17.4380 C   0  0  0  0  0  0  0  0  0  0  0  0
   20.8510   21.6110   21.1650 C   0  0  0  0  0  0  0  0  0  0  0  0
    6.8410   20.7970   17.3560 C   0  0  0  0  0  0  0  0  0  0  0  0
   21.8950   21.6750   20.9140 O   0  0  0  0  0  0  0  0  0  0  0  0
    7.1970   20.8730   17.4290 C   0  0  0  0  0  0  0  0  0  0  0  0
   22.1380   21.6320   20.8660 O   0  0  0  0  0  0  0  0  0  0  0  0
    8.4520   19.2540   22.2010 C   0  0  0  0  0  0  0  0  0  0  0  0
   20.9310   21.5780   20.8860 O   0  0  0  0  0  0  0  0  0  0  0  0
    8.1270   18.7220   22.0500 C   0  0  0  0  0  0  0  0  0  0  0  0
   20.9750   21.0080   20.4180 O   0  0  0  0  0  0  0  0  0  0  0  0
    8.2010   18.1630   21.6550 C   0  0  0  0  0  0  0  0  0  0  0  0
   18.6480   12.3030   16.6930 O   0  0  0  0  0  0  0  0  0  0  0  0
    8.6060   19.8480   15.1810 C   0  0  0  0  0  0  0  0  0  0  0  0
   18.6340   12.2370   16.7450 C   0  0  0  0  0  0  0  0  0  0  0  0
    9.3810   19.9310   15.9850 C   0  0  0  0  0  0  0  0  0  0  0  0
   20.8280   19.8730   20.2480 C   0  0  0  0  0  0  0  0  0  0  0  0
    9.7220   19.5930   16.1870 C   0  0  0  0  0  0  0  0  0  0  0  0
   17.4030   13.4150   14.5890 O   0  0  0  0  0  0  0  0  0  0  0  0
   10.3600   17.8640   16.1110 C   0  0  0  0  0  0  0  0  0  0  0  0
   19.2460   12.6630   15.2920 C   0  0  0  0  0  0  0  0  0  0  0  0
   10.3560   17.8540   16.1150 C   0  0  0  0  0  0  0  0  0  0  0  0
   21.1450   11.6340   11.6220 O   0  0  0  0  0  0  0  0  0  0  0  0
   10.4690   19.4790   15.7850 C   0  0  0  0  0  0  0  0  0  0  0  0
   21.2790   13.8530   15.0780 C   0  0  0  0  0  0  0  0  0  0  0  0
   10.4680   19.4810   15.7850 C   0  0  0  0  0  0  0  0  0  0  0  0
   21.4770   11.7250   13.5490 C   0  0  0  0  0  0  0  0  0  0  0  0
   10.1000   16.4840   15.3060 C   0  0  0  0  0  0  0  0  0  0  0  0
   21.5140   11.2340   12.6100 O   0  0  0  0  0  0  0  0  0  0  0  0
   11.0160   17.0180   14.8590 C   0  0  0  0  0  0  0  0  0  0  0  0
   21.4830   11.2180   12.6340 C   0  0  0  0  0  0  0  0  0  0  0  0
   10.5540   17.4330   15.8980 C   0  0  0  0  0  0  0  0  0  0  0  0
   24.5320   13.3950   16.2050 C   0  0  0  0  0  0  0  0  0  0  0  0
   10.4960   17.0840   15.9550 C   0  0  0  0  0  0  0  0  0  0  0  0
   24.5820   13.5300   16.3910 O   0  0  0  0  0  0  0  0  0  0  0  0
   10.4930   17.1100   15.9510 C   0  0  0  0  0  0  0  0  0  0  0  0
   24.6440   12.9360   16.5590 C   0  0  0  0  0  0  0  0  0  0  0  0
   10.4940   17.0850   15.9420 C   0  0  0  0  0  0  0  0  0  0  0  0
   25.6910   20.6670   23.9600 O   0  0  0  0  0  0  0  0  0  0  0  0
    8.7930   19.6350   22.9870 C   0  0  0  0  0  0  0  0  0  0  0  0
   20.8040   19.7970   19.9520 C   0  0  0  0  0  0  0  0  0  0  0  0
   10.7150   19.3820   24.1790 O   0  0  0  0  0  0  0  0  0  0  0  0
   20.6560   18.8680   19.8310 O   0  0  0  0  0  0  0  0  0  0  0  0
   11.0480   18.3200   21.8900 O   0  0  0  0  0  0  0  0  0  0  0  0
   22.5710   18.9470   18.3590 O   0  0  0  0  0  0  0  0  0  0  0  0
   10.2920   17.8600   20.0520 O   0  0  0  0  0  0  0  0  0  0  0  0
   22.5400   18.9650   18.4130 O   0  0  0  0  0  0  0  0  0  0  0  0
   11.0110   16.6480   18.5340 O   0  0  0  0  0  0  0  0  0  0  0  0
   21.8750   19.9450   17.4730 C   0  0  0  0  0  0  0  0  0  0  0  0
   13.0840   18.4710   22.7930 O   0  0  0  0  0  0  0  0  0  0  0  0
   22.0700   19.6800   17.6670 O   0  0  0  0  0  0  0  0  0  0  0  0
   12.9940   18.5470   22.9480 O   0  0  0  0  0  0  0  0  0  0  0  0
   17.4620   11.9850   17.5880 O   0  0  0  0  0  0  0  0  0  0  0  0
   13.1860   18.4560   22.8880 O   0  0  0  0  0  0  0  0  0  0  0  0
   18.4140   11.6120   17.2910 C   0  0  0  0  0  0  0  0  0  0  0  0
   12.9930   18.5800   23.0760 O   0  0  0  0  0  0  0  0  0  0  0  0
   18.6160   11.5990   17.5200 C   0  0  0  0  0  0  0  0  0  0  0  0
   12.8710   18.5800   23.0660 O   0  0  0  0  0  0  0  0  0  0  0  0
   18.3860   10.7810   17.4000 C   0  0  0  0  0  0  0  0  0  0  0  0
   13.1050   18.5390   23.0840 O   0  0  0  0  0  0  0  0  0  0  0  0
   18.2500   10.5170   17.4800 O   0  0  0  0  0  0  0  0  0  0  0  0
   13.7160   17.8610   23.1240 O   0  0  0  0  0  0  0  0  0  0  0  0
   18.4410   10.5260   17.5060 C   0  0  0  0  0  0  0  0  0  0  0  0
    9.9550   17.3970   19.2640 C   0  0  2  0  0  0  0  0  0  0  0  0
   19.8020   22.2830   20.4240 O   0  0  0  0  0  0  0  0  0  0  0  0
   20.8210   20.9890   20.2530 O   0  0  0  0  0  0  0  0  0  0  0  0
   20.8240   19.8560   19.9510 O   0  0  0  0  0  0  0  0  0  0  0  0
   21.2460   20.0130   19.6680 O   0  0  0  0  0  0  0  0  0  0  0  0
   20.9780   20.5970   20.1750 O   0  0  0  0  0  0  0  0  0  0  0  0
   20.9420   20.1990   20.0630 O   0  0  0  0  0  0  0  0  0  0  0  0
   21.0790   20.3620   20.0430 O   0  0  0  0  0  0  0  0  0  0  0  0
   19.1970   12.8830   16.0230 O   0  0  0  0  0  0  0  0  0  0  0  0
   20.4890   13.5970   15.3000 C   0  0  0  0  0  0  0  0  0  0  0  0
   19.1280   12.7980   15.5600 O   0  0  0  0  0  0  0  0  0  0  0  0
   18.9960   12.9030   15.3640 O   0  0  0  0  0  0  0  0  0  0  0  0
   19.1850   12.8200   15.4280 O   0  0  0  0  0  0  0  0  0  0  0  0
   17.9440   14.0860   14.7050 O   0  0  0  0  0  0  0  0  0  0  0  0
   21.0800   14.0390   15.2050 C   0  0  0  0  0  0  0  0  0  0  0  0
   19.1330   13.2660   16.7900 O   0  0  0  0  0  0  0  0  0  0  0  0
   19.2470   13.2970   16.7860 O   0  0  0  0  0  0  0  0  0  0  0  0
   19.1640   13.1980   16.7240 O   0  0  0  0  0  0  0  0  0  0  0  0
   22.3330   15.3000   15.6670 O   0  0  0  0  0  0  0  0  0  0  0  0
   22.3460   17.7110   18.0100 O   0  0  0  0  0  0  0  0  0  0  0  0
   19.5870   18.7470   19.6720 O   0  0  0  0  0  0  0  0  0  0  0  0
   22.2160   17.0590   18.2830 O   0  0  0  0  0  0  0  0  0  0  0  0
   22.4770   16.4730   17.8240 O   0  0  0  0  0  0  0  0  0  0  0  0
   22.4070   16.4650   17.9270 O   0  0  0  0  0  0  0  0  0  0  0  0
   22.0250   17.6070   18.6140 O   0  0  0  0  0  0  0  0  0  0  0  0
   22.0780   17.9060   18.5000 O   0  0  0  0  0  0  0  0  0  0  0  0
   21.4930   18.1730   19.0160 O   0  0  0  0  0  0  0  0  0  0  0  0
   18.1300   18.9840   19.4690 O   0  0  0  0  0  0  0  0  0  0  0  0
   18.4210   18.9430   19.5330 O   0  0  0  0  0  0  0  0  0  0  0  0
   19.6250   11.0480   12.3650 O   0  0  0  0  0  0  0  0  0  0  0  0
   21.6800   10.5730   12.3680 O   0  0  0  0  0  0  0  0  0  0  0  0
   21.8630   10.4630   12.2830 C   0  0  0  0  0  0  0  0  0  0  0  0
   21.4980   10.5740   12.5170 C   0  0  0  0  0  0  0  0  0  0  0  0
   15.1350   13.5710   14.6810 O   0  0  0  0  0  0  0  0  0  0  0  0
   15.1340   13.5710   14.6810 C   0  0  0  0  0  0  0  0  0  0  0  0
   15.1340   13.5710   14.6810 C   0  0  0  0  0  0  0  0  0  0  0  0
   15.1380   13.5710   14.6870 O   0  0  0  0  0  0  0  0  0  0  0  0
   16.4180   11.8950   17.9730 O   0  0  0  0  0  0  0  0  0  0  0  0
   16.0180   12.0100   18.3090 C   0  0  0  0  0  0  0  0  0  0  0  0
   13.1180   14.0870   16.5930 O   0  0  0  0  0  0  0  0  0  0  0  0
   12.5420   14.0470   17.7590 C   0  0  0  0  0  0  0  0  0  0  0  0
   19.3730   23.1410   19.6620 O   0  0  0  0  0  0  0  0  0  0  0  0
   19.8120   24.5010   20.5100 O   0  0  0  0  0  0  0  0  0  0  0  0
   19.9170   22.5120   20.7400 O   0  0  0  0  0  0  0  0  0  0  0  0
   19.8420   22.4290   20.5940 O   0  0  0  0  0  0  0  0  0  0  0  0
   19.3020   22.9000   21.9030 O   0  0  0  0  0  0  0  0  0  0  0  0
   18.0880   18.8870   19.5220 C   0  0  0  0  0  0  0  0  0  0  0  0
   18.1340   18.8550   19.5470 C   0  0  0  0  0  0  0  0  0  0  0  0
   22.9980   13.5950   12.4120 C   0  0  0  0  0  0  0  0  0  0  0  0
   23.1250   12.9130   13.4270 C   0  0  0  0  0  0  0  0  0  0  0  0
   22.6530   12.0540   12.5330 C   0  0  0  0  0  0  0  0  0  0  0  0
   22.0190   11.6910   12.6040 C   0  0  0  0  0  0  0  0  0  0  0  0
   22.6790   12.8680   13.8140 C   0  0  1  0  0  0  0  0  0  0  0  0
   22.2470   12.9490   13.9880 C   0  0  1  0  0  0  0  0  0  0  0  0
   22.2760   12.5350   13.6950 C   0  0  0  0  0  0  0  0  0  0  0  0
   21.2500   11.8160   11.5020 C   0  0  0  0  0  0  0  0  0  0  0  0
   13.7070   13.7410   14.4740 O   0  0  0  0  0  0  0  0  0  0  0  0
   12.5700   14.3100   18.3240 C   0  0  0  0  0  0  0  0  0  0  0  0
   10.0730   13.2040   17.7080 C   0  0  0  0  0  0  0  0  0  0  0  0
   11.8680   14.0720   19.5120 C   0  0  0  0  0  0  0  0  0  0  0  0
   11.9630   14.2220   19.4860 C   0  0  0  0  0  0  0  0  0  0  0  0
   11.9810   14.1980   19.4190 C   0  0  0  0  0  0  0  0  0  0  0  0
   11.7690   15.2520   19.1210 C   0  0  0  0  0  0  0  0  0  0  0  0
   11.4990   13.7520   17.5890 C   0  0  0  0  0  0  0  0  0  0  0  0
   12.1270   14.4020   18.3270 C   0  0  0  0  0  0  0  0  0  0  0  0
   12.0850   14.5530   18.3520 C   0  0  0  0  0  0  0  0  0  0  0  0
   11.8550   14.1350   17.6490 C   0  0  0  0  0  0  0  0  0  0  0  0
   11.7160   14.1710   17.4200 C   0  0  0  0  0  0  0  0  0  0  0  0
   11.2640   13.8070   17.1750 C   0  0  0  0  0  0  0  0  0  0  0  0
   11.2310   13.8120   17.1980 C   0  0  0  0  0  0  0  0  0  0  0  0
   11.2760   13.8250   17.2050 C   0  0  0  0  0  0  0  0  0  0  0  0
   11.6180   14.1550   17.3030 C   0  0  0  0  0  0  0  0  0  0  0  0
   11.6690   14.1910   17.2560 C   0  0  0  0  0  0  0  0  0  0  0  0
   11.6720   14.9000   16.7940 O   0  0  0  0  0  0  0  0  0  0  0  0
   12.3950   14.1130   15.4100 O   0  0  0  0  0  0  0  0  0  0  0  0
   12.3890   14.0490   15.4880 O   0  0  0  0  0  0  0  0  0  0  0  0
   11.3010   13.1380   15.5250 C   0  0  0  0  0  0  0  0  0  0  0  0
   11.2700   13.7430   16.8790 C   0  0  0  0  0  0  0  0  0  0  0  0
   12.0500   14.2180   16.4720 C   0  0  0  0  0  0  0  0  0  0  0  0
   11.7580   14.2060   16.9780 C   0  0  0  0  0  0  0  0  0  0  0  0
   11.8900   15.0600   16.2330 O   0  0  0  0  0  0  0  0  0  0  0  0
   11.7410   14.9300   16.5660 C   0  0  0  0  0  0  0  0  0  0  0  0
   10.2340   13.7730   17.1020 C   0  0  0  0  0  0  0  0  0  0  0  0
  5153  1  0  0  0  0
  5  7  1  0  0  0  0
  6 16  3  0  0  0  0
  8  9  3  0  0  0  0
 10 14  1  0  0  0  0
 12 11  2  0  0  0  0
 13 27  2  0  0  0  0
 15 14  1  0  0  0  0
 20 17  1  0  0  0  0
 20 56  2  0  0  0  0
 22 39  3  0  0  0  0
 29 30  1  0  0  0  0
 30  8  1  0  0  0  0
 31 30  1  0  0  0  0
 33105  1  6  0  0  0
 33 35  1  0  0  0  0
 36227  1  0  0  0  0
 38 32  3  0  0  0  0
 43 57  2  0  0  0  0
 44 23  1  0  0  0  0
 44 42  1  0  0  0  0
 52 41  3  0  0  0  0
 53 49  3  0  0  0  0
 59 64  1  0  0  0  0
 60 48  1  0  0  0  0
 63 62  1  6  0  0  0
 63 59  1  0  0  0  0
 63 64  1  0  0  0  0
 65 68  3  0  0  0  0
 69 60  2  0  0  0  0
 70 72  2  0  0  0  0
 71 73  1  0  0  0  0
 72 73  1  0  0  0  0
 75 85  1  0  0  0  0
 78110  3  0  0  0  0
 82 76  2  0  0  0  0
 82 80  1  0  0  0  0
 85 89  1  0  0  0  0
 89113  1  0  0  0  0
 92114  3  0  0  0  0
 93 91  3  0  0  0  0
 95 99  1  0  0  0  0
 98132  3  0  0  0  0
104174  1  0  0  0  0
107111  2  0  0  0  0
108166  3  0  0  0  0
112116  1  0  0  0  0
112 84  1  0  0  0  0
115159  1  0  0  0  0
117 28  2  0  0  0  0
121119  1  0  0  0  0
121165  1  0  0  0  0
122172  1  0  0  0  0
124118  1  0  0  0  0
125133  1  0  0  0  0
126128  1  0  0  0  0
128118  1  0  0  0  0
129123  3  0  0  0  0
133127  1  0  0  0  0
136134  2  0  0  0  0
137135  2  0  0  0  0
138136  1  0  0  0  0
139207  1  0  0  0  0
140142  2  0  0  0  0
141181  1  0  0  0  0
142144  1  0  0  0  0
145203  1  0  0  0  0
145 33  1  0  0  0  0
147 26  3  0  0  0  0
152144  2  0  0  0  0
154164  1  0  0  0  0
156164  1  0  0  0  0
158148  3  0  0  0  0
159163  2  0  0  0  0
161109  2  0  0  0  0
167196  1  0  0  0  0
176 74  2  0  0  0  0
177171  2  0  0  0  0
180 86  1  0  0  0  0
180 88  1  0  0  0  0
181185  2  0  0  0  0
186188  2  0  0  0  0
190174  1  6  0  0  0
190122  1  0  0  0  0
190172  1  0  0  0  0
191233  1  0  0  0  0
193197  1  0  0  0  0
194193  1  0  0  0  0
195192  1  0  0  0  0
196195  1  0  0  0  0
200198  2  0  0  0  0
202207  1  0  0  0  0
204199  3  0  0  0  0
204208  1  0  0  0  0
206 30  1  0  0  0  0
208 97  1  0  0  0  0
209215  1  0  0  0  0
210169  1  0  0  0  0
211 79  1  0  0  0  0
212 95  1  0  0  0  0
213214  1  0  0  0  0
214216  1  0  0  0  0
215 79  1  0  0  0  0
218210  1  0  0  0  0
221222  1  0  0  0  0
222157  1  0  0  0  0
226 35  1  0  0  0  0
227228  1  0  0  0  0
228 21  1  0  0  0  0
231191  1  0  0  0  0
233235  1  0  0  0  0
239 77  1  0  0  0  0
240244  1  0  0  0  0
241155  2  0  0  0  0
242239  1  6  0  0  0
242243  1  0  0  0  0
243151  1  1  0  0  0
244242  1  0  0  0  0
244243  1  0  0  0  0
244 54  1  0  0  0  0
245220  1  0  0  0  0
246224  1  0  0  0  0
247254  3  0  0  0  0
252250  3  0  0  0  0
260261  1  0  0  0  0
260253  1  0  0  0  0
261256  2  0  0  0  0
263269  1  0  0  0  0
267269  1  0  0  0  0
268271  1  0  0  0  0
268269  1  0  0  0  0
269257  1  0  0  0  0
270263  1  0  0  0  0
272248  3  0  0  0  0
M  END
$$$$
